dss/import/seal/Transformer_Caso_Base.dss
New "Transformer.TR_1396" Tap=1.075 Buses=[1396_1.1.2.3, 1396_2.1.2.3] XfmrCode=100_10_3 
New "Transformer.TR_1697" Tap=1.075 Buses=[1697_1.1.2.3, 1697_2.1.2.3] XfmrCode=100_10_3 
New "Transformer.TR_1698" Tap=1.075 Buses=[1698_1.1.2.3, 1698_2.1.2.3] XfmrCode=50_10_3 
New "Transformer.TR_1744" Tap=1.075 Buses=[1744_1.1.2.3, 1744_2.1.2.3] XfmrCode=100_10_3 
New "Transformer.TR_1745" Tap=1.075 Buses=[1745_1.1.2.3, 1745_2.1.2.3] XfmrCode=100_10_3 
New "Transformer.TR_1746" Tap=1.075 Buses=[1746_1.1.2.3, 1746_2.1.2.3] XfmrCode=100_10_3 
New "Transformer.TR_1778" Tap=1.075 Buses=[1778_1.1.2.3, 1778_2.1.2.3] XfmrCode=100_10_3 
New "Transformer.TR_1812" Tap=1.075 Buses=[1812_1.1.2.3, 1812_2.1.2.3] XfmrCode=100_10_3 
New "Transformer.TR_1813" Tap=1.075 Buses=[1813_1.1.2.3, 1813_2.1.2.3] XfmrCode=200_10_3 
New "Transformer.TR_1855" Tap=1.075 Buses=[1855_1.1.2.3, 1855_2.1.2.3] XfmrCode=50_10_3 
New "Transformer.TR_1876" Tap=1.075 Buses=[1876_1.1.2.3, 1876_2.1.2.3] XfmrCode=100_10_3 
New "Transformer.TR_1877" Tap=1.075 Buses=[1877_1.1.2.3, 1877_2.1.2.3] XfmrCode=100_10_3 
New "Transformer.TR_1878" Tap=1.075 Buses=[1878_1.1.2.3, 1878_2.1.2.3] XfmrCode=200_10_3 
New "Transformer.TR_1879" Tap=1.075 Buses=[1879_1.1.2.3, 1879_2.1.2.3] XfmrCode=100_10_3 
New "Transformer.TR_1893" Tap=1.075 Buses=[1893_1.1.2.3, 1893_2.1.2.3] XfmrCode=100_10_3 
New "Transformer.TR_1930" Tap=1.075 Buses=[1930_1.1.2.3, 1930_2.1.2.3] XfmrCode=50_10_3 
New "Transformer.TR_1982" Tap=1.075 Buses=[1982_1.1.2.3, 1982_2.1.2.3] XfmrCode=50_10_3 
New "Transformer.TR_1987" Tap=1.075 Buses=[1987_1.1.2.3, 1987_2.1.2.3] XfmrCode=100_10_3 
New "Transformer.TR_2086" Tap=1.075 Buses=[2086_1.1.2.3, 2086_2.1.2.3] XfmrCode=100_10_3 
New "Transformer.TR_2087" Tap=1.075 Buses=[2087_1.1.2.3, 2087_2.1.2.3] XfmrCode=100_10_3 
New "Transformer.TR_2088" Tap=1.075 Buses=[2088_1.1.2.3, 2088_2.1.2.3] XfmrCode=50_10_3 
New "Transformer.TR_2089" Tap=1.075 Buses=[2089_1.1.2.3, 2089_2.1.2.3] XfmrCode=25_10_3 
New "Transformer.TR_2090" Tap=1.075 Buses=[2090_1.1.2.3, 2090_2.1.2.3] XfmrCode=25_10_3 
New "Transformer.TR_2091" Tap=1.075 Buses=[2091_1.1.2.3, 2091_2.1.2.3] XfmrCode=50_10_3 
New "Transformer.TR_2092" Tap=1.075 Buses=[2092_1.1.2.3, 2092_2.1.2.3] XfmrCode=25_10_3 
New "Transformer.TR_2095" Tap=1.075 Buses=[2095_1.1.2.3, 2095_2.1.2.3] XfmrCode=100_10_3 
New "Transformer.TR_2096" Tap=1.075 Buses=[2096_1.1.2.3, 2096_2.1.2.3] XfmrCode=50_10_3 
New "Transformer.TR_2097" Tap=1.075 Buses=[2097_1.1.2.3, 2097_2.1.2.3] XfmrCode=50_10_3 
New "Transformer.TR_2126" Tap=1.075 Buses=[2126_1.1.2.3, 2126_2.1.2.3] XfmrCode=50_10_3 
New "Transformer.TR_2174" Tap=1.075 Buses=[2174_1.1.2.3, 2174_2.1.2.3] XfmrCode=200_10_3 
New "Transformer.TR_2222" Tap=1.075 Buses=[2222_1.1.2.3, 2222_2.1.2.3] XfmrCode=25_10_3 
New "Transformer.TR_2279" Tap=1.075 Buses=[2279_1.1.2.3, 2279_2.1.2.3] XfmrCode=50_10_3 
New "Transformer.TR_2423" Tap=1.075 Buses=[2423_1.1.2.3, 2423_2.1.2.3] XfmrCode=200_10_3 
New "Transformer.TR_2605" Tap=1.075 Buses=[2605_1.1.2.3, 2605_2.1.2.3] XfmrCode=50_10_3 
New "Transformer.TR_2606" Tap=1.075 Buses=[2606_1.1.2.3, 2606_2.1.2.3] XfmrCode=25_10_3 
New "Transformer.TR_2607" Tap=1.075 Buses=[2607_1.1.2.3, 2607_2.1.2.3] XfmrCode=50_10_3 
New "Transformer.TR_2628" Tap=1.075 Buses=[2628_1.1.2.3, 2628_2.1.2.3] XfmrCode=50_10_3 
New "Transformer.TR_2764" Tap=1.075 Buses=[2764_1.1.2.3, 2764_2.1.2.3] XfmrCode=15_10_3 
New "Transformer.TR_2765" Tap=1.075 Buses=[2765_1.1.2.3, 2765_2.1.2.3] XfmrCode=50_10_3 
New "Transformer.TR_2774" Tap=1.075 Buses=[2774_1.1.2.3, 2774_2.1.2.3] XfmrCode=25_10_3 
New "Transformer.TR_2775" Tap=1.075 Buses=[2775_1.1.2.3, 2775_2.1.2.3] XfmrCode=10_10_3 
New "Transformer.TR_2776" Tap=1.075 Buses=[2776_1.1.2.3, 2776_2.1.2.3] XfmrCode=25_10_3 
New "Transformer.TR_2777" Tap=1.075 Buses=[2777_1.1.2.3, 2777_2.1.2.3] XfmrCode=25_10_3 
New "Transformer.TR_2778" Tap=1.075 Buses=[2778_1.1.2.3, 2778_2.1.2.3] XfmrCode=10_10_3 
New "Transformer.TR_2779" Tap=1.075 Buses=[2779_1.1.2.3, 2779_2.1.2.3] XfmrCode=10_10_3 
New "Transformer.TR_2780" Tap=1.075 Buses=[2780_1.1.2.3, 2780_2.1.2.3] XfmrCode=10_10_3 
New "Transformer.TR_2781" Tap=1.075 Buses=[2781_1.1.2.3, 2781_2.1.2.3] XfmrCode=50_10_3 
New "Transformer.TR_2847" Tap=1.075 Buses=[2847_1.1.2.3, 2847_2.1.2.3] XfmrCode=50_10_3 
New "Transformer.TR_2848" Tap=1.075 Buses=[2848_1.1.2.3, 2848_2.1.2.3] XfmrCode=50_10_3 
New "Transformer.TR_2849" Tap=1.075 Buses=[2849_1.1.2.3, 2849_2.1.2.3] XfmrCode=25_10_3 
New "Transformer.TR_2850" Tap=1.075 Buses=[2850_1.1.2.3, 2850_2.1.2.3] XfmrCode=50_10_3 
New "Transformer.TR_2851" Tap=1.075 Buses=[2851_1.1.2.3, 2851_2.1.2.3] XfmrCode=50_10_3 
New "Transformer.TR_2852" Tap=1.075 Buses=[2852_1.1.2.3, 2852_2.1.2.3] XfmrCode=37_5_10_3 
New "Transformer.TR_2853" Tap=1.075 Buses=[2853_1.1.2.3, 2853_2.1.2.3] XfmrCode=25_10_3 
New "Transformer.TR_2854" Tap=1.075 Buses=[2854_1.1.2.3, 2854_2.1.2.3] XfmrCode=25_10_3 
New "Transformer.TR_2855" Tap=1.075 Buses=[2855_1.1.2.3, 2855_2.1.2.3] XfmrCode=10_10_3 
New "Transformer.TR_2971" Tap=1.075 Buses=[2971_1.1.2.3, 2971_2.1.2.3] XfmrCode=50_10_3 
New "Transformer.TR_3086" Tap=1.075 Buses=[3086_1.1.2.3, 3086_2.1.2.3] XfmrCode=50_10_3 
New "Transformer.TR_3101" Tap=1.075 Buses=[3101_1.1.2.3, 3101_2.1.2.3] XfmrCode=30_10_3 
New "Transformer.TR_3102" Tap=1.075 Buses=[3102_1.1.2.3, 3102_2.1.2.3] XfmrCode=37_5_10_3 
New "Transformer.TR_3103" Tap=1.075 Buses=[3103_1.1.2.3, 3103_2.1.2.3] XfmrCode=25_10_3 
New "Transformer.TR_3154" Tap=1.075 Buses=[3154_1.1.2.3, 3154_2.1.2.3] XfmrCode=100_10_3 
New "Transformer.TR_3155" Tap=1.075 Buses=[3155_1.1.2.3, 3155_2.1.2.3] XfmrCode=100_10_3 
New "Transformer.TR_3156" Tap=1.075 Buses=[3156_1.1.2.3, 3156_2.1.2.3] XfmrCode=100_10_3 
New "Transformer.TR_3170" Tap=1.075 Buses=[3170_1.1.2.3, 3170_2.1.2.3] XfmrCode=50_10_3 
New "Transformer.TR_3384" Tap=1.075 Buses=[3384_1.1.2.3, 3384_2.1.2.3] XfmrCode=100_10_3 
New "Transformer.TR_3401" Tap=1.075 Buses=[3401_1.1.2.3, 3401_2.1.2.3] XfmrCode=15_10_3 
New "Transformer.TR_3402" Tap=1.075 Buses=[3402_1.1.2.3, 3402_2.1.2.3] XfmrCode=15_10_3 
New "Transformer.TR_3407" Tap=1.075 Buses=[3407_1.1.2.3, 3407_2.1.2.3] XfmrCode=25_10_3 
New "Transformer.TR_3408" Tap=1.075 Buses=[3408_1.1.2.3, 3408_2.1.2.3] XfmrCode=37_5_10_3 
New "Transformer.TR_3409" Tap=1.075 Buses=[3409_1.1.2.3, 3409_2.1.2.3] XfmrCode=100_10_3 
New "Transformer.TR_3410" Tap=1.075 Buses=[3410_1.1.2.3, 3410_2.1.2.3] XfmrCode=10_10_3 
New "Transformer.TR_3411" Tap=1.075 Buses=[3411_1.1.2.3, 3411_2.1.2.3] XfmrCode=25_10_3 
New "Transformer.TR_3412" Tap=1.075 Buses=[3412_1.1.2.3, 3412_2.1.2.3] XfmrCode=25_10_3 
New "Transformer.TR_3413" Tap=1.075 Buses=[3413_1.1.2.3, 3413_2.1.2.3] XfmrCode=25_10_3 
New "Transformer.TR_3414" Tap=1.075 Buses=[3414_1.1.2.3, 3414_2.1.2.3] XfmrCode=25_10_3 
New "Transformer.TR_3415" Tap=1.075 Buses=[3415_1.1.2.3, 3415_2.1.2.3] XfmrCode=50_10_3 
New "Transformer.TR_3426" Tap=1.075 Buses=[3426_1.1.2.3, 3426_2.1.2.3] XfmrCode=10_10_3 
New "Transformer.TR_3469" Tap=1.075 Buses=[3469_1.1.2.3, 3469_2.1.2.3] XfmrCode=25_10_3 
New "Transformer.TR_3470" Tap=1.075 Buses=[3470_1.1.2.3, 3470_2.1.2.3] XfmrCode=15_10_3 
New "Transformer.TR_3496" Tap=1.075 Buses=[3496_1.1.2.3, 3496_2.1.2.3] XfmrCode=15_10_3 
New "Transformer.TR_3508" Tap=1.075 Buses=[3508_1.1.2.3, 3508_2.1.2.3] XfmrCode=100_10_3 
New "Transformer.TR_3533" Tap=1.075 Buses=[3533_1.1.2.3, 3533_2.1.2.3] XfmrCode=50_10_3 
New "Transformer.TR_3534" Tap=1.075 Buses=[3534_1.1.2.3, 3534_2.1.2.3] XfmrCode=25_10_3 
New "Transformer.TR_3535" Tap=1.075 Buses=[3535_1.1.2.3, 3535_2.1.2.3] XfmrCode=50_10_3 
New "Transformer.TR_3536" Tap=1.075 Buses=[3536_1.1.2.3, 3536_2.1.2.3] XfmrCode=50_10_3 
New "Transformer.TR_3587" Tap=1.075 Buses=[3587_1.1.2.3, 3587_2.1.2.3] XfmrCode=50_10_3 
New "Transformer.TR_3588" Tap=1.075 Buses=[3588_1.1.2.3, 3588_2.1.2.3] XfmrCode=50_10_3 
New "Transformer.TR_3593" Tap=1.075 Buses=[3593_1.1.2.3, 3593_2.1.2.3] XfmrCode=50_10_3 
New "Transformer.TR_3594" Tap=1.075 Buses=[3594_1.1.2.3, 3594_2.1.2.3] XfmrCode=50_10_3 
New "Transformer.TR_3598" Tap=1.075 Buses=[3598_1.1.2.3, 3598_2.1.2.3] XfmrCode=100_10_3 
New "Transformer.TR_3602" Tap=1.075 Buses=[3602_1.1.2.3, 3602_2.1.2.3] XfmrCode=37_5_10_3 
New "Transformer.TR_3604" Tap=1.075 Buses=[3604_1.1.2.3, 3604_2.1.2.3] XfmrCode=50_10_3 
New "Transformer.TR_3605" Tap=1.075 Buses=[3605_1.1.2.3, 3605_2.1.2.3] XfmrCode=50_10_3 
New "Transformer.TR_3624" Tap=1.075 Buses=[3624_1.1.2.3, 3624_2.1.2.3] XfmrCode=100_10_3 
New "Transformer.TR_3656" Tap=1.075 Buses=[3656_1.1.2.3, 3656_2.1.2.3] XfmrCode=100_10_3 
New "Transformer.TR_3657" Tap=1.075 Buses=[3657_1.1.2.3, 3657_2.1.2.3] XfmrCode=50_10_3 
New "Transformer.TR_3658" Tap=1.075 Buses=[3658_1.1.2.3, 3658_2.1.2.3] XfmrCode=25_10_3 
New "Transformer.TR_3662" Tap=1.075 Buses=[3662_1.1.2.3, 3662_2.1.2.3] XfmrCode=37_5_10_3 
New "Transformer.TR_3683" Tap=1.075 Buses=[3683_1.1.2.3, 3683_2.1.2.3] XfmrCode=100_10_3 
New "Transformer.TR_3687" Tap=1.075 Buses=[3687_1.1.2.3, 3687_2.1.2.3] XfmrCode=25_10_3 
New "Transformer.TR_3693" Tap=1.075 Buses=[3693_1.1.2.3, 3693_2.1.2.3] XfmrCode=100_10_3 
New "Transformer.TR_3700" Tap=1.075 Buses=[3700_1.1.2.3, 3700_2.1.2.3] XfmrCode=37_5_10_3 
New "Transformer.TR_3731" Tap=1.075 Buses=[3731_1.1.2.3, 3731_2.1.2.3] XfmrCode=25_10_3 
New "Transformer.TR_3757" Tap=1.075 Buses=[3757_1.1.2.3, 3757_2.1.2.3] XfmrCode=100_10_3 
New "Transformer.TR_3759" Tap=1.075 Buses=[3759_1.1.2.3, 3759_2.1.2.3] XfmrCode=30_10_3 
New "Transformer.TR_3770" Tap=1.075 Buses=[3770_1.1.2.3, 3770_2.1.2.3] XfmrCode=15_10_3 
New "Transformer.TR_3771" Tap=1.075 Buses=[3771_1.1.2.3, 3771_2.1.2.3] XfmrCode=25_10_3 
New "Transformer.TR_3788" Tap=1.075 Buses=[3788_1.1.2.3, 3788_2.1.2.3] XfmrCode=50_10_3 
New "Transformer.TR_3794" Tap=1.075 Buses=[3794_1.1.2.3, 3794_2.1.2.3] XfmrCode=100_10_3 
New "Transformer.TR_3826" Tap=1.075 Buses=[3826_1.1.2.3, 3826_2.1.2.3] XfmrCode=50_10_3 
New "Transformer.TR_3840" Tap=1.075 Buses=[3840_1.1.2.3, 3840_2.1.2.3] XfmrCode=50_10_3 
New "Transformer.TR_3850" Tap=1.075 Buses=[3850_1.1.2.3, 3850_2.1.2.3] XfmrCode=100_10_3 
New "Transformer.TR_3932" Tap=1.075 Buses=[3932_1.1.2.3, 3932_2.1.2.3] XfmrCode=30_10_3 
New "Transformer.TR_3978" Tap=1.075 Buses=[3978_1.1.2.3, 3978_2.1.2.3] XfmrCode=50_10_3 
New "Transformer.TR_3979" Tap=1.075 Buses=[3979_1.1.2.3, 3979_2.1.2.3] XfmrCode=50_10_3 
New "Transformer.TR_3980" Tap=1.075 Buses=[3980_1.1.2.3, 3980_2.1.2.3] XfmrCode=50_10_3 
New "Transformer.TR_3981" Tap=1.075 Buses=[3981_1.1.2.3, 3981_2.1.2.3] XfmrCode=100_10_3 
New "Transformer.TR_4014" Tap=1.075 Buses=[4014_1.1.2.3, 4014_2.1.2.3] XfmrCode=25_10_3 
New "Transformer.TR_4015" Tap=1.075 Buses=[4015_1.1.2.3, 4015_2.1.2.3] XfmrCode=25_10_3 
New "Transformer.TR_4051" Tap=1.075 Buses=[4051_1.1.2.3, 4051_2.1.2.3] XfmrCode=25_10_3 
New "Transformer.TR_4055" Tap=1.075 Buses=[4055_1.1.2.3, 4055_2.1.2.3] XfmrCode=37_5_10_3 
New "Transformer.TR_4091" Tap=1.075 Buses=[4091_1.1.2.3, 4091_2.1.2.3] XfmrCode=100_10_3 
New "Transformer.TR_4127" Tap=1.075 Buses=[4127_1.1.2.3, 4127_2.1.2.3] XfmrCode=50_10_3 
New "Transformer.TR_4130" Tap=1.075 Buses=[4130_1.1.2.3, 4130_2.1.2.3] XfmrCode=15_10_3 
New "Transformer.TR_4131" Tap=1.075 Buses=[4131_1.1.2.3, 4131_2.1.2.3] XfmrCode=100_10_3 
New "Transformer.TR_4132" Tap=1.075 Buses=[4132_1.1.2.3, 4132_2.1.2.3] XfmrCode=25_10_3 
New "Transformer.TR_4133" Tap=1.075 Buses=[4133_1.1.2.3, 4133_2.1.2.3] XfmrCode=50_10_3 
New "Transformer.TR_4147" Tap=1.075 Buses=[4147_1.1.2.3, 4147_2.1.2.3] XfmrCode=50_10_3 
New "Transformer.TR_4148" Tap=1.075 Buses=[4148_1.1.2.3, 4148_2.1.2.3] XfmrCode=50_10_3 
New "Transformer.TR_4177" Tap=1.075 Buses=[4177_1.1.2.3, 4177_2.1.2.3] XfmrCode=37_5_10_3 
New "Transformer.TR_4241" Tap=1.075 Buses=[4241_1.1.2.3, 4241_2.1.2.3] XfmrCode=100_10_3 
New "Transformer.TR_4287" Tap=1.075 Buses=[4287_1.1.2.3, 4287_2.1.2.3] XfmrCode=50_10_3 
New "Transformer.TR_4302" Tap=1.075 Buses=[4302_1.1.2.3, 4302_2.1.2.3] XfmrCode=200_10_3 
New "Transformer.TR_4311" Tap=1.075 Buses=[4311_1.1.2.3, 4311_2.1.2.3] XfmrCode=50_10_3 
New "Transformer.TR_4339" Tap=1.075 Buses=[4339_1.1.2.3, 4339_2.1.2.3] XfmrCode=100_10_3 
New "Transformer.TR_4418" Tap=1.075 Buses=[4418_1.1.2.3, 4418_2.1.2.3] XfmrCode=100_10_3 
New "Transformer.TR_4419" Tap=1.075 Buses=[4419_1.1.2.3, 4419_2.1.2.3] XfmrCode=100_10_3 
New "Transformer.TR_4420" Tap=1.075 Buses=[4420_1.1.2.3, 4420_2.1.2.3] XfmrCode=100_10_3 
New "Transformer.TR_4421" Tap=1.075 Buses=[4421_1.1.2.3, 4421_2.1.2.3] XfmrCode=100_10_3 
New "Transformer.TR_4422" Tap=1.075 Buses=[4422_1.1.2.3, 4422_2.1.2.3] XfmrCode=100_10_3 
New "Transformer.TR_4432" Tap=1.075 Buses=[4432_1.1.2.3, 4432_2.1.2.3] XfmrCode=100_10_3 
New "Transformer.TR_4433" Tap=1.075 Buses=[4433_1.1.2.3, 4433_2.1.2.3] XfmrCode=50_10_3 
New "Transformer.TR_4438" Tap=1.075 Buses=[4438_1.1.2.3, 4438_2.1.2.3] XfmrCode=100_10_3 
New "Transformer.TR_4452" Tap=1.075 Buses=[4452_1.1.2.3, 4452_2.1.2.3] XfmrCode=50_10_3 
New "Transformer.TR_4453" Tap=1.075 Buses=[4453_1.1.2.3, 4453_2.1.2.3] XfmrCode=100_10_3 
New "Transformer.TR_4470" Tap=1.075 Buses=[4470_1.1.2.3, 4470_2.1.2.3] XfmrCode=200_10_3 
New "Transformer.TR_4472" Tap=1.075 Buses=[4472_1.1.2.3, 4472_2.1.2.3] XfmrCode=50_10_3 
New "Transformer.TR_4473" Tap=1.075 Buses=[4473_1.1.2.3, 4473_2.1.2.3] XfmrCode=50_10_3 
New "Transformer.TR_4474" Tap=1.075 Buses=[4474_1.1.2.3, 4474_2.1.2.3] XfmrCode=50_10_3 
New "Transformer.TR_4475" Tap=1.075 Buses=[4475_1.1.2.3, 4475_2.1.2.3] XfmrCode=50_10_3 
New "Transformer.TR_4478" Tap=1.075 Buses=[4478_1.1.2.3, 4478_2.1.2.3] XfmrCode=100_10_3 
New "Transformer.TR_4540" Tap=1.075 Buses=[4540_1.1.2.3, 4540_2.1.2.3] XfmrCode=25_10_3 
New "Transformer.TR_4551" Tap=1.075 Buses=[4551_1.1.2.3, 4551_2.1.2.3] XfmrCode=250_10_3 
New "Transformer.TR_4561" Tap=1.075 Buses=[4561_1.1.2.3, 4561_2.1.2.3] XfmrCode=25_10_3 
New "Transformer.TR_4567" Tap=1.075 Buses=[4567_1.1.2.3, 4567_2.1.2.3] XfmrCode=25_10_3 
New "Transformer.TR_4608" Tap=1.075 Buses=[4608_1.1.2.3, 4608_2.1.2.3] XfmrCode=25_10_3 
New "Transformer.TR_4609" Tap=1.075 Buses=[4609_1.1.2.3, 4609_2.1.2.3] XfmrCode=25_10_3 
New "Transformer.TR_4621" Tap=1.075 Buses=[4621_1.1.2.3, 4621_2.1.2.3] XfmrCode=50_10_3 
New "Transformer.TR_4670" Tap=1.075 Buses=[4670_1.1.2.3, 4670_2.1.2.3] XfmrCode=25_10_3 
New "Transformer.TR_4671" Tap=1.075 Buses=[4671_1.1.2.3, 4671_2.1.2.3] XfmrCode=100_10_3 
New "Transformer.TR_4684" Tap=1.075 Buses=[4684_1.1.2.3, 4684_2.1.2.3] XfmrCode=200_10_3 
New "Transformer.TR_4718" Tap=1.075 Buses=[4718_1.1.2.3, 4718_2.1.2.3] XfmrCode=100_10_3 
New "Transformer.TR_4719" Tap=1.075 Buses=[4719_1.1.2.3, 4719_2.1.2.3] XfmrCode=25_10_3 
New "Transformer.TR_4744" Tap=1.075 Buses=[4744_1.1.2.3, 4744_2.1.2.3] XfmrCode=100_10_3 
New "Transformer.TR_4766" Tap=1.075 Buses=[4766_1.1.2.3, 4766_2.1.2.3] XfmrCode=25_10_3 
New "Transformer.TR_4777" Tap=1.075 Buses=[4777_1.1.2.3, 4777_2.1.2.3] XfmrCode=50_10_3 
New "Transformer.TR_4778" Tap=1.075 Buses=[4778_1.1.2.3, 4778_2.1.2.3] XfmrCode=50_10_3 
New "Transformer.TR_4779" Tap=1.075 Buses=[4779_1.1.2.3, 4779_2.1.2.3] XfmrCode=50_10_3 
New "Transformer.TR_4811" Tap=1.075 Buses=[4811_1.1.2.3, 4811_2.1.2.3] XfmrCode=50_10_3 
New "Transformer.TR_4816" Tap=1.075 Buses=[4816_1.1.2.3, 4816_2.1.2.3] XfmrCode=100_10_3 
New "Transformer.TR_4829" Tap=1.075 Buses=[4829_1.1.2.3, 4829_2.1.2.3] XfmrCode=320_10_3 
New "Transformer.TR_4845" Tap=1.075 Buses=[4845_1.1.2.3, 4845_2.1.2.3] XfmrCode=50_10_3 
New "Transformer.TR_4846" Tap=1.075 Buses=[4846_1.1.2.3, 4846_2.1.2.3] XfmrCode=25_10_3 
New "Transformer.TR_4847" Tap=1.075 Buses=[4847_1.1.2.3, 4847_2.1.2.3] XfmrCode=25_10_3 
New "Transformer.TR_5055" Tap=1.075 Buses=[5055_1.1.2.3, 5055_2.1.2.3] XfmrCode=50_10_3 
New "Transformer.TR_5063" Tap=1.075 Buses=[5063_1.1.2.3, 5063_2.1.2.3] XfmrCode=200_10_3 
New "Transformer.TR_5087" Tap=1.075 Buses=[5087_1.1.2.3, 5087_2.1.2.3] XfmrCode=100_10_3 
New "Transformer.TR_5103" Tap=1.075 Buses=[5103_1.1.2.3, 5103_2.1.2.3] XfmrCode=100_10_3 
New "Transformer.TR_5104" Tap=1.075 Buses=[5104_1.1.2.3, 5104_2.1.2.3] XfmrCode=50_10_3 
New "Transformer.TR_5145" Tap=1.075 Buses=[5145_1.1.2.3, 5145_2.1.2.3] XfmrCode=100_10_3 
New "Transformer.TR_5147" Tap=1.075 Buses=[5147_2_.1.2.3, 5147_3_.1.2.3] XfmrCode=100_10_3 
New "Transformer.TR_5148" Tap=1.075 Buses=[5148_1.1.2.3, 5148_2.1.2.3] XfmrCode=50_10_3 
New "Transformer.TR_5149" Tap=1.075 Buses=[5149_1.1.2.3, 5149_2.1.2.3] XfmrCode=50_10_3 
New "Transformer.TR_5150" Tap=1.075 Buses=[5150_2_.1.2.3, 5150_3_.1.2.3] XfmrCode=100_10_3 
New "Transformer.TR_5555" Tap=1.075 Buses=[5555_1.1.2.3, 5555_2.1.2.3] XfmrCode=50_10_3 
New "Transformer.TR_5556" Tap=1.075 Buses=[5556_1.1.2.3, 5556_2.1.2.3] XfmrCode=50_10_3 
New "Transformer.TR_5557" Tap=1.075 Buses=[5557_1.1.2.3, 5557_2.1.2.3] XfmrCode=50_10_3 
New "Transformer.TR_5558" Tap=1.075 Buses=[5558_1.1.2.3, 5558_2.1.2.3] XfmrCode=50_10_3 
New "Transformer.TR_5559" Tap=1.075 Buses=[5559_1.1.2.3, 5559_2.1.2.3] XfmrCode=50_10_3 
New "Transformer.TR_5560" Tap=1.075 Buses=[5560_1.1.2.3, 5560_2.1.2.3] XfmrCode=50_10_3 
New "Transformer.TR_5561" Tap=1.075 Buses=[5561_1.1.2.3, 5561_2.1.2.3] XfmrCode=50_10_3 
New "Transformer.TR_5562" Tap=1.075 Buses=[5562_1.1.2.3, 5562_2.1.2.3] XfmrCode=50_10_3 
New "Transformer.TR_5563" Tap=1.075 Buses=[5563_1.1.2.3, 5563_2.1.2.3] XfmrCode=50_10_3 
New "Transformer.TR_5564" Tap=1.075 Buses=[5564_1.1.2.3, 5564_2.1.2.3] XfmrCode=50_10_3 
