dss/import/seal/Line_Caso_Base.dss
New "Line.14710" phases=3 bus1=1_2461.1.2.3 bus2=26240.1.2.3 spacing=10_3 wires=(AL_35, AL_35, AL_35) length=0.021 units=km normamps=160 
New "Line.Line_1_" phases=3 bus1=1_2549.1.2.3 bus2=SEA000NMT013195.1.2.3 linecode=NA2XSY3x5010_00kVlne length=0.0143 units=km normamps=162 
New "Line.Line_10_" phases=3 bus1=26309.1.2.3 bus2=26310.1.2.3 spacing=10_3 wires=(AL_35, AL_35, AL_35) length=0.047 units=km normamps=160 
New "Line.Line_11_" phases=3 bus1=26310.1.2.3 bus2=26311.1.2.3 spacing=10_3 wires=(AL_35, AL_35, AL_35) length=0.051 units=km normamps=160 
New "Line.Line_12_" phases=3 bus1=26311.1.2.3 bus2=26311_1_.1.2.3 spacing=10_3 wires=(AL_35, AL_35, AL_35) length=0.054 units=km normamps=160 
New "Line.Line_13_" phases=3 bus1=26311_1_.1.2.3 bus2=1_2554.1.2.3 spacing=10_3 wires=(AL_35, AL_35, AL_35) length=0.053 units=km normamps=160 
New "Line.Line_14_" phases=3 bus1=2_2554.1.2.3 bus2=SEA000NMT018611_9_.1.2.3 spacing=10_3 wires=(AL_35, AL_35, AL_35) length=0.047 units=km normamps=160 
New "Line.Line_15_" phases=3 bus1=SEA000NMT018611_9_.1.2.3 bus2=SEA000NMT018611_10_.1.2.3 spacing=10_3 wires=(AL_35, AL_35, AL_35) length=0.059 units=km normamps=160 
New "Line.Line_16_" phases=3 bus1=SEA000NMT018611_10_.1.2.3 bus2=1_2555.1.2.3 spacing=10_3 wires=(AL_35, AL_35, AL_35) length=0.06 units=km normamps=160 
New "Line.Line_17_" phases=3 bus1=2_2555.1.2.3 bus2=SEA000NMT018611_1_.1.2.3 spacing=10_3 wires=(AL_35, AL_35, AL_35) length=0.047 units=km normamps=160 
New "Line.Line_18_" phases=3 bus1=SEA000NMT018611_1_.1.2.3 bus2=SEA000NMT018611_2_.1.2.3 spacing=10_3 wires=(AL_35, AL_35, AL_35) length=0.0475 units=km normamps=160 
New "Line.Line_19_" phases=3 bus1=SEA000NMT018611_2_.1.2.3 bus2=SEA000NMT018611_3_.1.2.3 spacing=10_3 wires=(AL_35, AL_35, AL_35) length=0.0461 units=km normamps=160 
New "Line.Line_2_" phases=3 bus1=1_2477.1.2.3 bus2=26303_1_.1.2.3 spacing=10_3 wires=(AL_35, AL_35, AL_35) length=0.02 units=km normamps=160 
New "Line.Line_20_" phases=3 bus1=SEA000NMT018611_3_.1.2.3 bus2=2_2564.1.2.3 spacing=10_3 wires=(AL_35, AL_35, AL_35) length=0.042 units=km normamps=160 
New "Line.Line_21_" phases=3 bus1=3_2554.1.2.3 bus2=26314.1.2.3 spacing=10_3 wires=(AL_35, AL_35, AL_35) length=0.046 units=km normamps=160 
New "Line.Line_22_" phases=3 bus1=26314.1.2.3 bus2=26315.1.2.3 spacing=10_3 wires=(AL_35, AL_35, AL_35) length=0.039 units=km normamps=160 
New "Line.Line_23_" phases=3 bus1=26315.1.2.3 bus2=26316.1.2.3 spacing=10_3 wires=(AL_35, AL_35, AL_35) length=0.055 units=km normamps=160 
New "Line.Line_24_" phases=3 bus1=26316.1.2.3 bus2=2_2563.1.2.3 spacing=10_3 wires=(AL_35, AL_35, AL_35) length=0.05555 units=km normamps=160 
New "Line.Line_25_" phases=3 bus1=1_2563.1.2.3 bus2=SEA000NMT018611_7_.1.2.3 spacing=10_3 wires=(AL_35, AL_35, AL_35) length=0.047 units=km normamps=160 
New "Line.Line_26_" phases=3 bus1=SEA000NMT018611_7_.1.2.3 bus2=SEA000NMT018611_4_.1.2.3 spacing=10_3 wires=(AL_35, AL_35, AL_35) length=0.047 units=km normamps=160 
New "Line.Line_27_" phases=3 bus1=SEA000NMT018611_4_.1.2.3 bus2=SEA000NMT018611_5_.1.2.3 spacing=10_3 wires=(AL_35, AL_35, AL_35) length=0.05 units=km normamps=160 
New "Line.Line_28_" phases=3 bus1=SEA000NMT018611_5_.1.2.3 bus2=SEA000NMT018611_6_.1.2.3 spacing=10_3 wires=(AL_35, AL_35, AL_35) length=0.059 units=km normamps=160 
New "Line.Line_29_" phases=3 bus1=SEA000NMT018611_6_.1.2.3 bus2=SEA000NMT018611_8_.1.2.3 spacing=10_3 wires=(AL_35, AL_35, AL_35) length=0.063 units=km normamps=160 
New "Line.Line_3_" phases=3 bus1=26240.1.2.3 bus2=26241.1.2.3 spacing=10_3 wires=(AL_35, AL_35, AL_35) length=0.073 units=km normamps=160 
New "Line.Line_30_" phases=3 bus1=SEA000NMT018611_8_.1.2.3 bus2=SEA000NMT018611_11_.1.2.3 spacing=10_3 wires=(AL_35, AL_35, AL_35) length=0.064 units=km normamps=160 
New "Line.Line_31_" phases=3 bus1=SEA000NMT018611_11_.1.2.3 bus2=SEA000NMT018611_12_.1.2.3 spacing=10_3 wires=(AL_35, AL_35, AL_35) length=0.053 units=km normamps=160 
New "Line.Line_32_" phases=3 bus1=SEA000NMT018611_12_.1.2.3 bus2=SEA000NMT018611_13_.1.2.3 spacing=10_3 wires=(AL_35, AL_35, AL_35) length=0.054 units=km normamps=160 
New "Line.Line_33_" phases=3 bus1=SEA000NMT018611_13_.1.2.3 bus2=1_2565.1.2.3 spacing=10_3 wires=(AL_35, AL_35, AL_35) length=0.06 units=km normamps=160 
New "Line.Line_34_" phases=3 bus1=2_2565.1.2.3 bus2=SEA000NMT018611_14_.1.2.3 spacing=10_3 wires=(AL_35, AL_35, AL_35) length=0.05 units=km normamps=160 
New "Line.Line_35_" phases=3 bus1=SEA000NMT018611_14_.1.2.3 bus2=SEA000NMT018611_15_.1.2.3 spacing=10_3 wires=(AL_35, AL_35, AL_35) length=0.063 units=km normamps=160 
New "Line.Line_36_" phases=3 bus1=SEA000NMT018611_15_.1.2.3 bus2=1_2566.1.2.3 spacing=10_3 wires=(AL_35, AL_35, AL_35) length=0.072 units=km normamps=160 
New "Line.Line_37_" phases=3 bus1=SEA000NMT010533.1.2.3 bus2=SEA000NMT010533_1_.1.2.3 spacing=10_3 wires=(AL_35, AL_35, AL_35) length=0.04 units=km normamps=160 
New "Line.Line_38_" phases=3 bus1=SEA000NMT010533_1_.1.2.3 bus2=1_2562.1.2.3 spacing=10_3 wires=(AL_35, AL_35, AL_35) length=0.063 units=km normamps=160 
New "Line.Line_4_" phases=3 bus1=26241.1.2.3 bus2=1_2553.1.2.3 spacing=10_3 wires=(AL_35, AL_35, AL_35) length=0.134 units=km normamps=160 
New "Line.Line_5_" phases=3 bus1=26303_1_.1.2.3 bus2=26304_1_.1.2.3 spacing=10_3 wires=(AL_35, AL_35, AL_35) length=0.05 units=km normamps=160 
New "Line.Line_50_" phases=3 bus1=BARRADE10KVCN2.1.2.3 bus2=SEA000NMT009609_1_.1.2.3 spacing=10_3 wires=(AL_150, AL_150, AL_150) length=0.0261 units=km normamps=395 
New "Line.Line_51_" phases=3 bus1=SEA000NMT009609_1_.1.2.3 bus2=SEA000NMT009591_1_.1.2.3 spacing=10_3 wires=(AL_150, AL_150, AL_150) length=0.1095 units=km normamps=395 
New "Line.Line_52_" phases=3 bus1=SEA000NMT009591_1_.1.2.3 bus2=SEA000NMT009590_1_.1.2.3 spacing=10_3 wires=(AL_150, AL_150, AL_150) length=0.0454 units=km normamps=395 
New "Line.Line_53_" phases=3 bus1=SEA000NMT009590_1_.1.2.3 bus2=SEA000NMT009588_1_.1.2.3 spacing=10_3 wires=(AL_150, AL_150, AL_150) length=0.108 units=km normamps=395 
New "Line.Line_54_" phases=3 bus1=SEA000NMT009588_1_.1.2.3 bus2=SEA000NMT017308_1_.1.2.3 spacing=10_3 wires=(AL_150, AL_150, AL_150) length=0.06 units=km normamps=395 
New "Line.Line_55_" phases=3 bus1=SEA000NMT017308_1_.1.2.3 bus2=SEA000NMT017307_1_.1.2.3 spacing=10_3 wires=(AL_150, AL_150, AL_150) length=0.055 units=km normamps=395 
New "Line.Line_56_" phases=3 bus1=SEA000NMT017307_1_.1.2.3 bus2=SEA000NMT010263_2_.1.2.3 spacing=10_3 wires=(AL_150, AL_150, AL_150) length=0.03 units=km normamps=395 
New "Line.Line_57_" phases=3 bus1=SEA000NMT010263_2_.1.2.3 bus2=SEA000NMT020129_2_.1.2.3 spacing=10_3 wires=(AL_150, AL_150, AL_150) length=0.035 units=km normamps=395 
New "Line.Line_58_" phases=3 bus1=SEA000NMT020129_2_.1.2.3 bus2=SEA000NMT010264_2_.1.2.3 spacing=10_3 wires=(AL_150, AL_150, AL_150) length=0.04 units=km normamps=395 
New "Line.Line_59_" phases=3 bus1=SEA000NMT010264_2_.1.2.3 bus2=SEA000NMT019930_1_.1.2.3 spacing=10_3 wires=(AL_150, AL_150, AL_150) length=0.044 units=km normamps=395 
New "Line.Line_6_" phases=3 bus1=26304_1_.1.2.3 bus2=26305.1.2.3 spacing=10_3 wires=(AL_35, AL_35, AL_35) length=0.061 units=km normamps=160 
New "Line.Line_60_" phases=3 bus1=SEA000NMT019930_1_.1.2.3 bus2=SEA000NMT010266_1_.1.2.3 spacing=10_3 wires=(AL_150, AL_150, AL_150) length=0.12 units=km normamps=395 
New "Line.Line_61_" phases=3 bus1=SEA000NMT010266_1_.1.2.3 bus2=SEA000NMT013193.1.2.3 spacing=10_3 wires=(AL_150, AL_150, AL_150) length=0.117 units=km normamps=395 
New "Line.Line_7_" phases=3 bus1=26305.1.2.3 bus2=26306.1.2.3 spacing=10_3 wires=(AL_35, AL_35, AL_35) length=0.052 units=km normamps=160 
New "Line.Line_78_" phases=3 bus1=1_2540.1.2.3 bus2=1_2568.1.2.3 spacing=10_3 wires=(AL_35, AL_35, AL_35) length=0.29 units=km normamps=160 
New "Line.Line_79_" phases=3 bus1=2_2568.1.2.3 bus2=Terminal_18_.1.2.3 spacing=10_3 wires=(AL_35, AL_35, AL_35) length=0.301 units=km normamps=160 
New "Line.Line_8_" phases=3 bus1=26306.1.2.3 bus2=26308.1.2.3 spacing=10_3 wires=(AL_35, AL_35, AL_35) length=0.057 units=km normamps=160 
New "Line.Line_80_" phases=3 bus1=3_2568.1.2.3 bus2=Terminal_17_.1.2.3 spacing=10_3 wires=(AL_35, AL_35, AL_35) length=0.172 units=km normamps=160 
New "Line.Line_81_" phases=3 bus1=Terminal_18_.1.2.3 bus2=2_2569.1.2.3 spacing=10_3 wires=(AL_35, AL_35, AL_35) length=0.114 units=km normamps=160 
New "Line.Line_82_" phases=3 bus1=3_2569.1.2.3 bus2=Terminal_19_.1.2.3 spacing=10_3 wires=(AL_35, AL_35, AL_35) length=0.1055 units=km normamps=160 
New "Line.Line_83_" phases=3 bus1=Terminal_19_.1.2.3 bus2=Terminal_20_.1.2.3 spacing=10_3 wires=(AL_35, AL_35, AL_35) length=0.0522 units=km normamps=160 
New "Line.Line_84_" phases=3 bus1=Terminal_20_.1.2.3 bus2=1_2570.1.2.3 spacing=10_3 wires=(AL_35, AL_35, AL_35) length=0.1006 units=km normamps=160 
New "Line.Line_85_" phases=3 bus1=Terminal_19_.1.2.3 bus2=Terminal_21_.1.2.3 spacing=10_3 wires=(AL_35, AL_35, AL_35) length=0.0875 units=km normamps=160 
New "Line.Line_86_" phases=3 bus1=Terminal_21_.1.2.3 bus2=1_2571.1.2.3 spacing=10_3 wires=(AL_35, AL_35, AL_35) length=0.1139 units=km normamps=160 
New "Line.Line_87_" phases=3 bus1=2_2571.1.2.3 bus2=2_2572.1.2.3 spacing=10_3 wires=(AL_35, AL_35, AL_35) length=0.294 units=km normamps=160 
New "Line.Line_88_" phases=3 bus1=Terminal_17_.1.2.3 bus2=Terminal_23_.1.2.3 spacing=10_3 wires=(AL_35, AL_35, AL_35) length=0.0963 units=km normamps=160 
New "Line.Line_89_" phases=3 bus1=Terminal_23_.1.2.3 bus2=Terminal_16_.1.2.3 spacing=10_3 wires=(AL_35, AL_35, AL_35) length=0.1415 units=km normamps=160 
New "Line.Line_9_" phases=3 bus1=26308.1.2.3 bus2=26309.1.2.3 spacing=10_3 wires=(AL_35, AL_35, AL_35) length=0.052 units=km normamps=160 
New "Line.Line_90_" phases=3 bus1=Terminal_16_.1.2.3 bus2=1_2573.1.2.3 spacing=10_3 wires=(AL_35, AL_35, AL_35) length=0.0764 units=km normamps=160 
New "Line.Line_91_" phases=3 bus1=Terminal_23_.1.2.3 bus2=1_2574.1.2.3 spacing=10_3 wires=(AL_35, AL_35, AL_35) length=0.14715 units=km normamps=160 
New "Line.Line_92_" phases=3 bus1=3_2574.1.2.3 bus2=Terminal_22_.1.2.3 spacing=10_3 wires=(AL_35, AL_35, AL_35) length=0.0451 units=km normamps=160 
New "Line.Line_93_" phases=3 bus1=Terminal_22_.1.2.3 bus2=Terminal_24_.1.2.3 spacing=10_3 wires=(AL_35, AL_35, AL_35) length=0.237 units=km normamps=160 
New "Line.Line_94_" phases=3 bus1=Terminal_24_.1.2.3 bus2=Terminal_25_.1.2.3 spacing=10_3 wires=(AL_35, AL_35, AL_35) length=0.0629 units=km normamps=160 
New "Line.Line_95_" phases=3 bus1=Terminal_25_.1.2.3 bus2=Terminal_26_.1.2.3 spacing=10_3 wires=(AL_35, AL_35, AL_35) length=0.0983 units=km normamps=160 
New "Line.Line_96_" phases=3 bus1=Terminal_26_.1.2.3 bus2=1_2575.1.2.3 spacing=10_3 wires=(AL_35, AL_35, AL_35) length=0.0629 units=km normamps=160 
New "Line.Line_97_" phases=3 bus1=2_2575.1.2.3 bus2=1_2576.1.2.3 spacing=10_3 wires=(AL_35, AL_35, AL_35) length=0.1485 units=km normamps=160 
New "Line.Line_98_" phases=3 bus1=2_2576.1.2.3 bus2=Terminal_27__2196.1.2.3 spacing=10_3 wires=(AL_35, AL_35, AL_35) length=0.145 units=km normamps=160 
New "Line.Line_99_" phases=3 bus1=Terminal_27__2196.1.2.3 bus2=1_2577.1.2.3 spacing=10_3 wires=(AL_35, AL_35, AL_35) length=0.1007 units=km normamps=160 
New "Line.SEA000VMT000112" phases=3 bus1=SEA000NMT010725.1.2.3 bus2=SEA000NMT010727.1.2.3 spacing=10_3 wires=(AL_35, AL_35, AL_35) length=0.11 units=km normamps=160 
New "Line.SEA000VMT000113" phases=3 bus1=SEA000NMT010727.1.2.3 bus2=SEA000NMT010728.1.2.3 spacing=10_3 wires=(AL_35, AL_35, AL_35) length=0.0745 units=km normamps=160 
New "Line.SEA000VMT000114" phases=3 bus1=SEA000NMT010728.1.2.3 bus2=2781_1_.1.2.3 spacing=10_3 wires=(AL_35, AL_35, AL_35) length=0.0424 units=km normamps=160 
New "Line.SEA000VMT004106" phases=3 bus1=SEA000NMT017300.1.2.3 bus2=SEA000NMT010641.1.2.3 spacing=10_3 wires=(AL_35, AL_35, AL_35) length=0.0535 units=km normamps=160 
New "Line.SEA000VMT004107" phases=3 bus1=SEA000NMT010641.1.2.3 bus2=SEA000NMT010642.1.2.3 spacing=10_3 wires=(AL_35, AL_35, AL_35) length=0.0648 units=km normamps=160 
New "Line.SEA000VMT004108" phases=3 bus1=SEA000NMT010642.1.2.3 bus2=2222_1_.1.2.3 spacing=10_3 wires=(AL_35, AL_35, AL_35) length=0.0859 units=km normamps=160 
New "Line.SEA000VMT004109" phases=3 bus1=SEA000NMT010634.1.2.3 bus2=SEA000NMT010638.1.2.3 spacing=10_3 wires=(AL_85, AL_85, AL_85) length=0.0912 units=km normamps=273 
New "Line.SEA000VMT004110" phases=3 bus1=SEA000NMT010638.1.2.3 bus2=SEA000NMT010639.1.2.3 spacing=10_3 wires=(AL_85, AL_85, AL_85) length=0.0982 units=km normamps=273 
New "Line.SEA000VMT004111" phases=3 bus1=SEA000NMT010639.1.2.3 bus2=SEA000NMT010640.1.2.3 spacing=10_3 wires=(AL_85, AL_85, AL_85) length=0.018 units=km normamps=273 
New "Line.SEA000VMT004112" phases=3 bus1=SEA000NMT010634.1.2.3 bus2=SEA000NMT010635.1.2.3 spacing=10_3 wires=(AL_35, AL_35, AL_35) length=0.0418 units=km normamps=160 
New "Line.SEA000VMT004113" phases=3 bus1=SEA000NMT010635.1.2.3 bus2=SEA000NMT010636.1.2.3 spacing=10_3 wires=(AL_35, AL_35, AL_35) length=0.0399 units=km normamps=160 
New "Line.SEA000VMT004114" phases=3 bus1=SEA000NMT010636.1.2.3 bus2=1876_1_.1.2.3 spacing=10_3 wires=(AL_35, AL_35, AL_35) length=0.0345 units=km normamps=160 
New "Line.SEA000VMT004115" phases=3 bus1=SEA000NMT010627.1.2.3 bus2=SEA000NMT010630.1.2.3 spacing=10_3 wires=(AL_85, AL_85, AL_85) length=0.0789 units=km normamps=273 
New "Line.SEA000VMT004116" phases=3 bus1=SEA000NMT010630.1.2.3 bus2=SEA000NMT010631.1.2.3 spacing=10_3 wires=(AL_85, AL_85, AL_85) length=0.0731 units=km normamps=273 
New "Line.SEA000VMT004117" phases=3 bus1=SEA000NMT010631.1.2.3 bus2=SEA000NMT010632.1.2.3 spacing=10_3 wires=(AL_85, AL_85, AL_85) length=0.0713 units=km normamps=273 
New "Line.SEA000VMT004118" phases=3 bus1=SEA000NMT010632.1.2.3 bus2=SEA000NMT010633.1.2.3 spacing=10_3 wires=(AL_85, AL_85, AL_85) length=0.082 units=km normamps=273 
New "Line.SEA000VMT004119" phases=3 bus1=SEA000NMT010633.1.2.3 bus2=SEA000NMT010634.1.2.3 spacing=10_3 wires=(AL_85, AL_85, AL_85) length=0.0794 units=km normamps=273 
New "Line.SEA000VMT004120" phases=3 bus1=SEA000NMT010627.1.2.3 bus2=SEA000NMT010628.1.2.3 spacing=10_3 wires=(AL_35, AL_35, AL_35) length=0.05 units=km normamps=160 
New "Line.SEA000VMT004121" phases=3 bus1=SEA000NMT010628.1.2.3 bus2=1877_1_.1.2.3 spacing=10_3 wires=(AL_35, AL_35, AL_35) length=0.034 units=km normamps=160 
New "Line.SEA000VMT004122" phases=3 bus1=SEA000NMT010593.1.2.3 bus2=SEA000NMT010626.1.2.3 spacing=10_3 wires=(AL_85, AL_85, AL_85) length=0.076 units=km normamps=273 
New "Line.SEA000VMT004123" phases=3 bus1=SEA000NMT010626.1.2.3 bus2=SEA000NMT010627.1.2.3 spacing=10_3 wires=(AL_85, AL_85, AL_85) length=0.0957 units=km normamps=273 
New "Line.SEA000VMT004124" phases=3 bus1=2764_1_.1.2.3 bus2=SEA000NMT010601.1.2.3 spacing=10_3 wires=(AL_35, AL_35, AL_35) length=0.0533 units=km normamps=160 
New "Line.SEA000VMT004125" phases=3 bus1=SEA000NMT010601.1.2.3 bus2=2765_1_.1.2.3 spacing=10_3 wires=(AL_35, AL_35, AL_35) length=0.0525 units=km normamps=160 
New "Line.SEA000VMT004126" phases=3 bus1=SEA000NMT010599.1.2.3 bus2=2764_1_.1.2.3 spacing=10_3 wires=(AL_35, AL_35, AL_35) length=0.07 units=km normamps=160 
New "Line.SEA000VMT004127" phases=3 bus1=SEA000NMT010599.1.2.3 bus2=SEA000NMT010603.1.2.3 spacing=10_3 wires=(AL_85, AL_85, AL_85) length=0.054 units=km normamps=273 
New "Line.SEA000VMT004128" phases=3 bus1=SEA000NMT010603.1.2.3 bus2=SEA000NMT010604.1.2.3 spacing=10_3 wires=(AL_85, AL_85, AL_85) length=0.0522 units=km normamps=273 
New "Line.SEA000VMT004129" phases=3 bus1=SEA000NMT010604.1.2.3 bus2=SEA000NMT010605.1.2.3 spacing=10_3 wires=(AL_85, AL_85, AL_85) length=0.0485 units=km normamps=273 
New "Line.SEA000VMT004130" phases=3 bus1=SEA000NMT010605.1.2.3 bus2=1879_1_.1.2.3 spacing=10_3 wires=(AL_85, AL_85, AL_85) length=0.0438 units=km normamps=273 
New "Line.SEA000VMT004131" phases=3 bus1=SEA000NMT010596.1.2.3 bus2=SEA000NMT010597.1.2.3 spacing=10_3 wires=(AL_85, AL_85, AL_85) length=0.0574 units=km normamps=273 
New "Line.SEA000VMT004132" phases=3 bus1=SEA000NMT010597.1.2.3 bus2=SEA000NMT010598.1.2.3 spacing=10_3 wires=(AL_85, AL_85, AL_85) length=0.0578 units=km normamps=273 
New "Line.SEA000VMT004133" phases=3 bus1=SEA000NMT010598.1.2.3 bus2=SEA000NMT010599.1.2.3 spacing=10_3 wires=(AL_85, AL_85, AL_85) length=0.0554 units=km normamps=273 
New "Line.SEA000VMT004134" phases=3 bus1=SEA000NMT012814.1.2.3 bus2=SEA000NMT012815.1.2.3 spacing=10_3 wires=(AL_35, AL_35, AL_35) length=0.0498 units=km normamps=160 
New "Line.SEA000VMT004135" phases=3 bus1=SEA000NMT012815.1.2.3 bus2=SEA000NMT012816.1.2.3 spacing=10_3 wires=(AL_35, AL_35, AL_35) length=0.0662 units=km normamps=160 
New "Line.SEA000VMT004136" phases=3 bus1=SEA000NMT012816.1.2.3 bus2=SEA000NMT012817.1.2.3 spacing=10_3 wires=(AL_35, AL_35, AL_35) length=0.0708 units=km normamps=160 
New "Line.SEA000VMT004137" phases=3 bus1=SEA000NMT012817.1.2.3 bus2=3657_1_.1.2.3 spacing=10_3 wires=(AL_35, AL_35, AL_35) length=0.0624 units=km normamps=160 
New "Line.SEA000VMT004138" phases=3 bus1=SEA000NMT012814.1.2.3 bus2=SEA000NMT012912.1.2.3 spacing=10_3 wires=(AL_85, AL_85, AL_85) length=0.1 units=km normamps=273 
New "Line.SEA000VMT004139" phases=3 bus1=SEA000NMT012912.1.2.3 bus2=3658_1_.1.2.3 spacing=10_3 wires=(AL_85, AL_85, AL_85) length=0.0794 units=km normamps=273 
New "Line.SEA000VMT004140" phases=3 bus1=2097_1_.1.2.3 bus2=SEA000NMT012814.1.2.3 spacing=10_3 wires=(AL_35, AL_35, AL_35) length=0.0528 units=km normamps=160 
New "Line.SEA000VMT004141" phases=3 bus1=SEA000NMT010621.1.2.3 bus2=SEA000NMT010624.1.2.3 spacing=10_3 wires=(AL_35, AL_35, AL_35) length=0.0704 units=km normamps=160 
New "Line.SEA000VMT004142" phases=3 bus1=SEA000NMT010624.1.2.3 bus2=2097_1_.1.2.3 spacing=10_3 wires=(AL_35, AL_35, AL_35) length=0.0496 units=km normamps=160 
New "Line.SEA000VMT004546" phases=3 bus1=SEA000NMT010446.1.2.3 bus2=SEA000NMT010447.1.2.3 spacing=10_3 wires=(AL_35, AL_35, AL_35) length=0.0432 units=km normamps=160 
New "Line.SEA000VMT004547" phases=3 bus1=SEA000NMT010447.1.2.3 bus2=1893_1_.1.2.3 spacing=10_3 wires=(AL_35, AL_35, AL_35) length=0.0236 units=km normamps=160 
New "Line.SEA000VMT004566" phases=3 bus1=SEA000NMT010294.1.2.3 bus2=SEA000NMT010295.1.2.3 spacing=10_3 wires=(AL_85, AL_85, AL_85) length=0.0526 units=km normamps=273 
New "Line.SEA000VMT004567" phases=3 bus1=SEA000NMT010295.1.2.3 bus2=SEA000NMT010296.1.2.3 spacing=10_3 wires=(AL_85, AL_85, AL_85) length=0.015 units=km normamps=273 
New "Line.SEA000VMT004568" phases=3 bus1=SEA000NMT010296.1.2.3 bus2=SEA000NMT010297.1.2.3 spacing=10_3 wires=(AL_85, AL_85, AL_85) length=0.051 units=km normamps=273 
New "Line.SEA000VMT004569" phases=3 bus1=1698_1_.1.2.3 bus2=SEA000NMT010316.1.2.3 spacing=10_3 wires=(AL_85, AL_85, AL_85) length=0.0461 units=km normamps=273 
New "Line.SEA000VMT004570" phases=3 bus1=SEA000NMT010316.1.2.3 bus2=SEA000NMT010317.1.2.3 spacing=10_3 wires=(AL_85, AL_85, AL_85) length=0.0529 units=km normamps=273 
New "Line.SEA000VMT004571" phases=3 bus1=SEA000NMT010317.1.2.3 bus2=SEA000NMT013826.1.2.3 spacing=10_3 wires=(AL_85, AL_85, AL_85) length=0.02 units=km normamps=273 
New "Line.SEA000VMT004572" phases=3 bus1=SEA000NMT010320.1.2.3 bus2=SEA000NMT010321.1.2.3 spacing=10_3 wires=(AL_85, AL_85, AL_85) length=0.03741 units=km normamps=273 
New "Line.SEA000VMT004573" phases=3 bus1=SEA000NMT010321.1.2.3 bus2=SEA000NMT013021.1.2.3 spacing=10_3 wires=(AL_85, AL_85, AL_85) length=0.033 units=km normamps=273 
New "Line.SEA000VMT004574" phases=3 bus1=SEA000NMT013021.1.2.3 bus2=SEA000NMT008284.1.2.3 spacing=10_3 wires=(AL_70, AL_70, AL_70) length=0.0587 units=km normamps=235 
New "Line.SEA000VMT004575" phases=3 bus1=SEA000NMT008284.1.2.3 bus2=SEA000NMT013022.1.2.3 spacing=10_3 wires=(AL_70, AL_70, AL_70) length=0.06 units=km normamps=235 
New "Line.SEA000VMT004576" phases=3 bus1=SEA000NMT013022.1.2.3 bus2=SEA000NMT010324.1.2.3 spacing=10_3 wires=(AL_70, AL_70, AL_70) length=0.07 units=km normamps=235 
New "Line.SEA000VMT004577" phases=3 bus1=1396_1_.1.2.3 bus2=SEA000NMT010313.1.2.3 spacing=10_3 wires=(AL_85, AL_85, AL_85) length=0.0639 units=km normamps=273 
New "Line.SEA000VMT004578" phases=3 bus1=SEA000NMT010313.1.2.3 bus2=3508_1_.1.2.3 spacing=10_3 wires=(AL_85, AL_85, AL_85) length=0.0733 units=km normamps=273 
New "Line.SEA000VMT004579" phases=3 bus1=3598_1_.1.2.3 bus2=1396_1_.1.2.3 spacing=10_3 wires=(AL_85, AL_85, AL_85) length=0.0629 units=km normamps=273 
New "Line.SEA000VMT004580" phases=3 bus1=SEA000NMT010308.1.2.3 bus2=1982_1_.1.2.3 spacing=10_3 wires=(CU_35, CU_35, CU_35) length=0.024 units=km normamps=229 
New "Line.SEA000VMT004581" phases=3 bus1=SEA000NMT010307.1.2.3 bus2=SEA000NMT010308.1.2.3 spacing=10_3 wires=(AL_35, AL_35, AL_35) length=0.048 units=km normamps=160 
New "Line.SEA000VMT004582" phases=3 bus1=3508_1_.1.2.3 bus2=1698_1_.1.2.3 spacing=10_3 wires=(AL_85, AL_85, AL_85) length=0.0797 units=km normamps=273 
New "Line.SEA000VMT004583" phases=3 bus1=3693_1_.1.2.3 bus2=SEA000NMT012776.1.2.3 spacing=10_3 wires=(AL_95, AL_95, AL_95) length=0.0735 units=km normamps=300 
New "Line.SEA000VMT004584" phases=3 bus1=SEA000NMT012776.1.2.3 bus2=SEA000NMT012777.1.2.3 spacing=10_3 wires=(AL_95, AL_95, AL_95) length=0.0506 units=km normamps=300 
New "Line.SEA000VMT004585" phases=3 bus1=SEA000NMT012777.1.2.3 bus2=SEA000NMT012778.1.2.3 spacing=10_3 wires=(AL_95, AL_95, AL_95) length=0.0489 units=km normamps=300 
New "Line.SEA000VMT004586" phases=3 bus1=SEA000NMT012778.1.2.3 bus2=SEA000NMT012779.1.2.3 spacing=10_3 wires=(AL_95, AL_95, AL_95) length=0.0579 units=km normamps=300 
New "Line.SEA000VMT004587" phases=3 bus1=SEA000NMT012779.1.2.3 bus2=SEA000NMT012780.1.2.3 spacing=10_3 wires=(AL_95, AL_95, AL_95) length=0.0547 units=km normamps=300 
New "Line.SEA000VMT004588" phases=3 bus1=SEA000NMT012780.1.2.3 bus2=SEA000NMT012781.1.2.3 spacing=10_3 wires=(AL_95, AL_95, AL_95) length=0.0856 units=km normamps=300 
New "Line.SEA000VMT004589" phases=3 bus1=SEA000NMT012781.1.2.3 bus2=SEA000NMT012782.1.2.3 spacing=10_3 wires=(AL_95, AL_95, AL_95) length=0.064 units=km normamps=300 
New "Line.SEA000VMT004590" phases=3 bus1=SEA000NMT012782.1.2.3 bus2=SEA000NMT012783.1.2.3 spacing=10_3 wires=(AL_95, AL_95, AL_95) length=0.0735 units=km normamps=300 
New "Line.SEA000VMT004591" phases=3 bus1=SEA000NMT012783.1.2.3 bus2=3980_1_.1.2.3 spacing=10_3 wires=(AL_95, AL_95, AL_95) length=0.0468 units=km normamps=300 
New "Line.SEA000VMT004592" phases=3 bus1=3980_1_.1.2.3 bus2=SEA000NMT012785.1.2.3 spacing=10_3 wires=(AL_95, AL_95, AL_95) length=0.049 units=km normamps=300 
New "Line.SEA000VMT004593" phases=3 bus1=SEA000NMT012785.1.2.3 bus2=SEA000NMT012786.1.2.3 spacing=10_3 wires=(AL_95, AL_95, AL_95) length=0.0558 units=km normamps=300 
New "Line.SEA000VMT004594" phases=3 bus1=SEA000NMT012786.1.2.3 bus2=SEA000NMT012787.1.2.3 spacing=10_3 wires=(AL_95, AL_95, AL_95) length=0.0536 units=km normamps=300 
New "Line.SEA000VMT004595" phases=3 bus1=SEA000NMT012787.1.2.3 bus2=SEA000NMT012788.1.2.3 spacing=10_3 wires=(AL_95, AL_95, AL_95) length=0.0401 units=km normamps=300 
New "Line.SEA000VMT004596" phases=3 bus1=SEA000NMT012788.1.2.3 bus2=SEA000NMT012789.1.2.3 spacing=10_3 wires=(AL_95, AL_95, AL_95) length=0.0442 units=km normamps=300 
New "Line.SEA000VMT004597" phases=3 bus1=SEA000NMT012789.1.2.3 bus2=SEA000NMT012790.1.2.3 spacing=10_3 wires=(AL_95, AL_95, AL_95) length=0.0452 units=km normamps=300 
New "Line.SEA000VMT004598" phases=3 bus1=SEA000NMT012790.1.2.3 bus2=SEA000NMT012791.1.2.3 spacing=10_3 wires=(AL_95, AL_95, AL_95) length=0.0412 units=km normamps=300 
New "Line.SEA000VMT004599" phases=3 bus1=SEA000NMT012791.1.2.3 bus2=3624_1_.1.2.3 spacing=10_3 wires=(AL_95, AL_95, AL_95) length=0.057 units=km normamps=300 
New "Line.SEA000VMT004600" phases=3 bus1=SEA000NMT010294.1.2.3 bus2=SEA000NMT012771.1.2.3 spacing=10_3 wires=(AL_95, AL_95, AL_95) length=0.0461 units=km normamps=300 
New "Line.SEA000VMT004601" phases=3 bus1=SEA000NMT012771.1.2.3 bus2=SEA000NMT012772.1.2.3 spacing=10_3 wires=(AL_95, AL_95, AL_95) length=0.0484 units=km normamps=300 
New "Line.SEA000VMT004602" phases=3 bus1=SEA000NMT012772.1.2.3 bus2=SEA000NMT012773.1.2.3 spacing=10_3 wires=(AL_95, AL_95, AL_95) length=0.0509 units=km normamps=300 
New "Line.SEA000VMT004603" phases=3 bus1=SEA000NMT012773.1.2.3 bus2=SEA000NMT012774.1.2.3 spacing=10_3 wires=(AL_95, AL_95, AL_95) length=0.0413 units=km normamps=300 
New "Line.SEA000VMT004604" phases=3 bus1=SEA000NMT012774.1.2.3 bus2=3693_1_.1.2.3 spacing=10_3 wires=(AL_95, AL_95, AL_95) length=0.0721 units=km normamps=300 
New "Line.SEA000VMT004605" phases=3 bus1=2279_1_.1.2.3 bus2=SEA000NMT015609.1.2.3 spacing=10_3 wires=(AL_85, AL_85, AL_85) length=0.0409 units=km normamps=273 
New "Line.SEA000VMT004606" phases=3 bus1=SEA000NMT013899.1.2.3 bus2=SEA000NMT010288.1.2.3 spacing=10_3 wires=(AL_85, AL_85, AL_85) length=0.0611 units=km normamps=273 
New "Line.SEA000VMT004607" phases=3 bus1=SEA000NMT010288.1.2.3 bus2=SEA000NMT010289.1.2.3 spacing=10_3 wires=(AL_85, AL_85, AL_85) length=0.0294 units=km normamps=273 
New "Line.SEA000VMT004608" phases=3 bus1=SEA000NMT010289.1.2.3 bus2=SEA000NMT010290.1.2.3 spacing=10_3 wires=(AL_85, AL_85, AL_85) length=0.0315 units=km normamps=273 
New "Line.SEA000VMT004609" phases=3 bus1=SEA000NMT010290.1.2.3 bus2=SEA000NMT010291.1.2.3 spacing=10_3 wires=(AL_85, AL_85, AL_85) length=0.0332 units=km normamps=273 
New "Line.SEA000VMT004610" phases=3 bus1=SEA000NMT010291.1.2.3 bus2=SEA000NMT010292.1.2.3 spacing=10_3 wires=(AL_85, AL_85, AL_85) length=0.0336 units=km normamps=273 
New "Line.SEA000VMT004611" phases=3 bus1=SEA000NMT010292.1.2.3 bus2=SEA000NMT010293.1.2.3 spacing=10_3 wires=(AL_85, AL_85, AL_85) length=0.0575 units=km normamps=273 
New "Line.SEA000VMT004612" phases=3 bus1=SEA000NMT010293.1.2.3 bus2=SEA000NMT010294.1.2.3 spacing=10_3 wires=(AL_85, AL_85, AL_85) length=0.0554 units=km normamps=273 
New "Line.SEA000VMT004613" phases=3 bus1=3384_1_.1.2.3 bus2=SEA000NMT010281.1.2.3 spacing=10_3 wires=(AL_85, AL_85, AL_85) length=0.0564 units=km normamps=273 
New "Line.SEA000VMT004614" phases=3 bus1=SEA000NMT010281.1.2.3 bus2=SEA000NMT017611.1.2.3 spacing=10_3 wires=(AL_85, AL_85, AL_85) length=0.0402 units=km normamps=273 
New "Line.SEA000VMT004615" phases=3 bus1=SEA000NMT010282.1.2.3 bus2=SEA000NMT010283.1.2.3 spacing=10_3 wires=(AL_85, AL_85, AL_85) length=0.0611 units=km normamps=273 
New "Line.SEA000VMT004616" phases=3 bus1=SEA000NMT010283.1.2.3 bus2=SEA000NMT010284.1.2.3 spacing=10_3 wires=(AL_85, AL_85, AL_85) length=0.0177 units=km normamps=273 
New "Line.SEA000VMT004617" phases=3 bus1=SEA000NMT010284.1.2.3 bus2=SEA000NMT016017.1.2.3 spacing=10_3 wires=(AL_85, AL_85, AL_85) length=0.0325 units=km normamps=273 
New "Line.SEA000VMT004618" phases=3 bus1=SEA000NMT010285.1.2.3 bus2=2279_1_.1.2.3 spacing=10_3 wires=(AL_85, AL_85, AL_85) length=0.0516 units=km normamps=273 
New "Line.SEA000VMT004619" phases=3 bus1=SEA000NMT018719.1.2.3 bus2=3700_1_.1.2.3 spacing=10_3 wires=(AL_85, AL_85, AL_85) length=0.0355 units=km normamps=273 
New "Line.SEA000VMT004620" phases=3 bus1=3700_1_.1.2.3 bus2=SEA000NMT010307.1.2.3 spacing=10_3 wires=(AL_85, AL_85, AL_85) length=0.0255 units=km normamps=273 
New "Line.SEA000VMT004621" phases=3 bus1=SEA000NMT010297.1.2.3 bus2=SEA000NMT010301.1.2.3 spacing=10_3 wires=(AL_95, AL_95, AL_95) length=0.0741 units=km normamps=300 
New "Line.SEA000VMT004622" phases=3 bus1=SEA000NMT010301.1.2.3 bus2=SEA000NMT016016.1.2.3 spacing=10_3 wires=(AL_95, AL_95, AL_95) length=0.0726 units=km normamps=300 
New "Line.SEA000VMT004623" phases=3 bus1=SEA000NMT016016.1.2.3 bus2=SEA000NMT010303.1.2.3 spacing=10_3 wires=(AL_95, AL_95, AL_95) length=0.0474 units=km normamps=300 
New "Line.SEA000VMT004624" phases=3 bus1=SEA000NMT010303.1.2.3 bus2=SEA000NMT010304.1.2.3 spacing=10_3 wires=(AL_85, AL_85, AL_85) length=0.0663 units=km normamps=273 
New "Line.SEA000VMT004625" phases=3 bus1=SEA000NMT010304.1.2.3 bus2=SEA000NMT017741.1.2.3 spacing=10_3 wires=(AL_85, AL_85, AL_85) length=0.078 units=km normamps=273 
New "Line.SEA000VMT004626" phases=3 bus1=1697_1_.1.2.3 bus2=3662_1_.1.2.3 spacing=10_3 wires=(AL_85, AL_85, AL_85) length=0.0385 units=km normamps=273 
New "Line.SEA000VMT004627" phases=3 bus1=SEA000NMT010297.1.2.3 bus2=SEA000NMT010298.1.2.3 spacing=10_3 wires=(AL_85, AL_85, AL_85) length=0.075 units=km normamps=273 
New "Line.SEA000VMT004628" phases=3 bus1=SEA000NMT010298.1.2.3 bus2=SEA000NMT010299.1.2.3 spacing=10_3 wires=(AL_85, AL_85, AL_85) length=0.0715 units=km normamps=273 
New "Line.SEA000VMT004629" phases=3 bus1=SEA000NMT010299.1.2.3 bus2=1697_1_.1.2.3 spacing=10_3 wires=(AL_85, AL_85, AL_85) length=0.0628 units=km normamps=273 
New "Line.SEA000VMT005831" phases=3 bus1=SEA000NMT013758.1.2.3 bus2=SEA000NMT013759.1.2.3 spacing=10_3 wires=(AL_85, AL_85, AL_85) length=0.0712 units=km normamps=273 
New "Line.SEA000VMT005832" phases=3 bus1=SEA000NMT013759.1.2.3 bus2=SEA000NMT013760.1.2.3 spacing=10_3 wires=(AL_85, AL_85, AL_85) length=0.0638 units=km normamps=273 
New "Line.SEA000VMT005833" phases=3 bus1=SEA000NMT013760.1.2.3 bus2=SEA000NMT013761.1.2.3 spacing=10_3 wires=(AL_85, AL_85, AL_85) length=0.065 units=km normamps=273 
New "Line.SEA000VMT005834" phases=3 bus1=SEA000NMT013761.1.2.3 bus2=SEA000NMT013762.1.2.3 spacing=10_3 wires=(AL_85, AL_85, AL_85) length=0.0655 units=km normamps=273 
New "Line.SEA000VMT005835" phases=3 bus1=SEA000NMT013762.1.2.3 bus2=3426_1_.1.2.3 spacing=10_3 wires=(AL_85, AL_85, AL_85) length=0.0723 units=km normamps=273 
New "Line.SEA000VMT005836" phases=3 bus1=SEA000NMT012602.1.2.3 bus2=SEA000NMT013832.1.2.3 spacing=10_3 wires=(AL_50, AL_50, AL_50) length=0.05 units=km normamps=195 
New "Line.SEA000VMT005837" phases=3 bus1=SEA000NMT013832.1.2.3 bus2=SEA000NMT013833.1.2.3 spacing=10_3 wires=(AL_50, AL_50, AL_50) length=0.0543 units=km normamps=195 
New "Line.SEA000VMT005838" phases=3 bus1=SEA000NMT013833.1.2.3 bus2=SEA000NMT013834.1.2.3 spacing=10_3 wires=(AL_50, AL_50, AL_50) length=0.092 units=km normamps=195 
New "Line.SEA000VMT005839" phases=3 bus1=SEA000NMT013834.1.2.3 bus2=SEA000NMT013835.1.2.3 spacing=10_3 wires=(AL_50, AL_50, AL_50) length=0.0783 units=km normamps=195 
New "Line.SEA000VMT005840" phases=3 bus1=SEA000NMT013835.1.2.3 bus2=SEA000NMT013836.1.2.3 spacing=10_3 wires=(AL_50, AL_50, AL_50) length=0.0924 units=km normamps=195 
New "Line.SEA000VMT005841" phases=3 bus1=SEA000NMT013836.1.2.3 bus2=SEA000NMT013837.1.2.3 spacing=10_3 wires=(AL_50, AL_50, AL_50) length=0.0814 units=km normamps=195 
New "Line.SEA000VMT005842" phases=3 bus1=SEA000NMT013837.1.2.3 bus2=SEA000NMT013838.1.2.3 spacing=10_3 wires=(AL_50, AL_50, AL_50) length=0.0624 units=km normamps=195 
New "Line.SEA000VMT005843" phases=3 bus1=SEA000NMT013838.1.2.3 bus2=SEA000NMT013839.1.2.3 spacing=10_3 wires=(AL_50, AL_50, AL_50) length=0.0664 units=km normamps=195 
New "Line.SEA000VMT005844" phases=3 bus1=SEA000NMT013839.1.2.3 bus2=3771_1_.1.2.3 spacing=10_3 wires=(AL_50, AL_50, AL_50) length=0.0834 units=km normamps=195 
New "Line.SEA000VMT005845" phases=3 bus1=SEA000NMT013826.1.2.3 bus2=3759_1_.1.2.3 spacing=10_3 wires=(AL_35, AL_35, AL_35) length=0.0442 units=km normamps=160 
New "Line.SEA000VMT005846" phases=3 bus1=SEA000NMT013826.1.2.3 bus2=SEA000NMT010318.1.2.3 spacing=10_3 wires=(AL_85, AL_85, AL_85) length=0.0343 units=km normamps=273 
New "Line.SEA000VMT005847" phases=3 bus1=SEA000NMT010318.1.2.3 bus2=SEA000NMT010319.1.2.3 spacing=10_3 wires=(AL_85, AL_85, AL_85) length=0.0488 units=km normamps=273 
New "Line.SEA000VMT005848" phases=3 bus1=SEA000NMT010319.1.2.3 bus2=SEA000NMT010320.1.2.3 spacing=10_3 wires=(AL_85, AL_85, AL_85) length=0.05 units=km normamps=273 
New "Line.SEA000VMT005850" phases=3 bus1=SEA000NMT010666.1.2.3 bus2=SEA000NMT010670.1.2.3 spacing=10_3 wires=(AL_35, AL_35, AL_35) length=0.054 units=km normamps=160 
New "Line.SEA000VMT005851" phases=3 bus1=SEA000NMT010670.1.2.3 bus2=SEA000NMT010671.1.2.3 spacing=10_3 wires=(AL_35, AL_35, AL_35) length=0.074 units=km normamps=160 
New "Line.SEA000VMT005852" phases=3 bus1=SEA000NMT010671.1.2.3 bus2=SEA000NMT017758.1.2.3 spacing=10_3 wires=(AL_35, AL_35, AL_35) length=0.052 units=km normamps=160 
...
