dss/import/seal/Switch_Caso_Base.dss
New "Line.Fus_1396" phases=3 bus1=1396_1_.1.2.3 bus2=1396_1.1.2.3 length=0.001 r1=0.0001 x1=0 r0=0.0001 x0=0 C1=0 C0=0 Switch=y 
New "Line.Fus_1697" phases=3 bus1=1697_1_.1.2.3 bus2=1697_1.1.2.3 length=0.001 r1=0.0001 x1=0 r0=0.0001 x0=0 C1=0 C0=0 Switch=y 
New "Line.Fus_1698" phases=3 bus1=1698_1_.1.2.3 bus2=1698_1.1.2.3 length=0.001 r1=0.0001 x1=0 r0=0.0001 x0=0 C1=0 C0=0 Switch=y 
New "Line.Fus_1744" phases=3 bus1=1744_1_.1.2.3 bus2=1744_1.1.2.3 length=0.001 r1=0.0001 x1=0 r0=0.0001 x0=0 C1=0 C0=0 Switch=y 
New "Line.Fus_1745" phases=3 bus1=1745_1_.1.2.3 bus2=1745_1.1.2.3 length=0.001 r1=0.0001 x1=0 r0=0.0001 x0=0 C1=0 C0=0 Switch=y 
New "Line.Fus_1746" phases=3 bus1=1746_1_.1.2.3 bus2=1746_1.1.2.3 length=0.001 r1=0.0001 x1=0 r0=0.0001 x0=0 C1=0 C0=0 Switch=y 
New "Line.Fus_1778" phases=3 bus1=1778_1_.1.2.3 bus2=1778_1.1.2.3 length=0.001 r1=0.0001 x1=0 r0=0.0001 x0=0 C1=0 C0=0 Switch=y 
New "Line.Fus_1812" phases=3 bus1=1812_1_.1.2.3 bus2=1812_1.1.2.3 length=0.001 r1=0.0001 x1=0 r0=0.0001 x0=0 C1=0 C0=0 Switch=y 
New "Line.Fus_1813" phases=3 bus1=1813_1_.1.2.3 bus2=1813_1.1.2.3 length=0.001 r1=0.0001 x1=0 r0=0.0001 x0=0 C1=0 C0=0 Switch=y 
New "Line.Fus_1855" phases=3 bus1=1855_1_.1.2.3 bus2=1855_1.1.2.3 length=0.001 r1=0.0001 x1=0 r0=0.0001 x0=0 C1=0 C0=0 Switch=y 
New "Line.Fus_1876" phases=3 bus1=1876_1_.1.2.3 bus2=1876_1.1.2.3 length=0.001 r1=0.0001 x1=0 r0=0.0001 x0=0 C1=0 C0=0 Switch=y 
New "Line.Fus_1877" phases=3 bus1=1877_1_.1.2.3 bus2=1877_1.1.2.3 length=0.001 r1=0.0001 x1=0 r0=0.0001 x0=0 C1=0 C0=0 Switch=y 
New "Line.Fus_1878" phases=3 bus1=1878_1_.1.2.3 bus2=1878_1.1.2.3 length=0.001 r1=0.0001 x1=0 r0=0.0001 x0=0 C1=0 C0=0 Switch=y 
New "Line.Fus_1879" phases=3 bus1=1879_1_.1.2.3 bus2=1879_1.1.2.3 length=0.001 r1=0.0001 x1=0 r0=0.0001 x0=0 C1=0 C0=0 Switch=y 
New "Line.Fus_1893" phases=3 bus1=1893_1_.1.2.3 bus2=1893_1.1.2.3 length=0.001 r1=0.0001 x1=0 r0=0.0001 x0=0 C1=0 C0=0 Switch=y 
New "Line.Fus_1930_1_" phases=3 bus1=1930_1_.1.2.3 bus2=1_2300.1.2.3 length=0.001 r1=0.0001 x1=0 r0=0.0001 x0=0 C1=0 C0=0 Switch=y 
New "Line.Fus_1930_2_" phases=3 bus1=1930_1_.1.2.3 bus2=2_2300.1.2.3 length=0.001 r1=0.0001 x1=0 r0=0.0001 x0=0 C1=0 C0=0 Switch=y 
New "Line.Fus_1930" phases=3 bus1=1930_1_.1.2.3 bus2=1930_1.1.2.3 length=0.001 r1=0.0001 x1=0 r0=0.0001 x0=0 C1=0 C0=0 Switch=y 
New "Line.Fus_1982" phases=3 bus1=1982_1_.1.2.3 bus2=1982_1.1.2.3 length=0.001 r1=0.0001 x1=0 r0=0.0001 x0=0 C1=0 C0=0 Switch=y 
New "Line.Fus_1987" phases=3 bus1=1987_1_.1.2.3 bus2=1987_1.1.2.3 length=0.001 r1=0.0001 x1=0 r0=0.0001 x0=0 C1=0 C0=0 Switch=y 
New "Line.Fus_2086" phases=3 bus1=2086_1_.1.2.3 bus2=2086_1.1.2.3 length=0.001 r1=0.0001 x1=0 r0=0.0001 x0=0 C1=0 C0=0 Switch=y 
New "Line.Fus_2087" phases=3 bus1=2087_1_.1.2.3 bus2=2087_1.1.2.3 length=0.001 r1=0.0001 x1=0 r0=0.0001 x0=0 C1=0 C0=0 Switch=y 
New "Line.Fus_2088" phases=3 bus1=2088_1_.1.2.3 bus2=2088_1.1.2.3 length=0.001 r1=0.0001 x1=0 r0=0.0001 x0=0 C1=0 C0=0 Switch=y 
New "Line.Fus_2089" phases=3 bus1=2089_1_.1.2.3 bus2=2089_1.1.2.3 length=0.001 r1=0.0001 x1=0 r0=0.0001 x0=0 C1=0 C0=0 Switch=y 
New "Line.Fus_2090" phases=3 bus1=2090_1_.1.2.3 bus2=2090_1.1.2.3 length=0.001 r1=0.0001 x1=0 r0=0.0001 x0=0 C1=0 C0=0 Switch=y 
New "Line.Fus_2091" phases=3 bus1=2091_1_.1.2.3 bus2=2091_1.1.2.3 length=0.001 r1=0.0001 x1=0 r0=0.0001 x0=0 C1=0 C0=0 Switch=y 
New "Line.Fus_2092" phases=3 bus1=2092_1_.1.2.3 bus2=2092_1.1.2.3 length=0.001 r1=0.0001 x1=0 r0=0.0001 x0=0 C1=0 C0=0 Switch=y 
New "Line.Fus_2095" phases=3 bus1=2095_1_.1.2.3 bus2=2095_1.1.2.3 length=0.001 r1=0.0001 x1=0 r0=0.0001 x0=0 C1=0 C0=0 Switch=y 
New "Line.Fus_2096" phases=3 bus1=2096_1_.1.2.3 bus2=2096_1.1.2.3 length=0.001 r1=0.0001 x1=0 r0=0.0001 x0=0 C1=0 C0=0 Switch=y 
New "Line.Fus_2097" phases=3 bus1=2097_1_.1.2.3 bus2=2097_1.1.2.3 length=0.001 r1=0.0001 x1=0 r0=0.0001 x0=0 C1=0 C0=0 Switch=y 
New "Line.Fus_2126" phases=3 bus1=2126_1_.1.2.3 bus2=2126_1.1.2.3 length=0.001 r1=0.0001 x1=0 r0=0.0001 x0=0 C1=0 C0=0 Switch=y 
New "Line.Fus_2174" phases=3 bus1=2174_1_.1.2.3 bus2=2174_1.1.2.3 length=0.001 r1=0.0001 x1=0 r0=0.0001 x0=0 C1=0 C0=0 Switch=y 
New "Line.Fus_2222" phases=3 bus1=2222_1_.1.2.3 bus2=2222_1.1.2.3 length=0.001 r1=0.0001 x1=0 r0=0.0001 x0=0 C1=0 C0=0 Switch=y 
New "Line.Fus_2279" phases=3 bus1=2279_1_.1.2.3 bus2=2279_1.1.2.3 length=0.001 r1=0.0001 x1=0 r0=0.0001 x0=0 C1=0 C0=0 Switch=y 
New "Line.Fus_2423" phases=3 bus1=2423_1_.1.2.3 bus2=2423_1.1.2.3 length=0.001 r1=0.0001 x1=0 r0=0.0001 x0=0 C1=0 C0=0 Switch=y 
New "Line.Fus_2605" phases=3 bus1=2605_1_.1.2.3 bus2=2605_1.1.2.3 length=0.001 r1=0.0001 x1=0 r0=0.0001 x0=0 C1=0 C0=0 Switch=y 
New "Line.Fus_2606" phases=3 bus1=2606_1_.1.2.3 bus2=2606_1.1.2.3 length=0.001 r1=0.0001 x1=0 r0=0.0001 x0=0 C1=0 C0=0 Switch=y 
New "Line.Fus_2607" phases=3 bus1=2607_1_.1.2.3 bus2=2607_1.1.2.3 length=0.001 r1=0.0001 x1=0 r0=0.0001 x0=0 C1=0 C0=0 Switch=y 
New "Line.Fus_2628" phases=3 bus1=2628_1_.1.2.3 bus2=2628_1.1.2.3 length=0.001 r1=0.0001 x1=0 r0=0.0001 x0=0 C1=0 C0=0 Switch=y 
New "Line.Fus_2764" phases=3 bus1=2764_1_.1.2.3 bus2=2764_1.1.2.3 length=0.001 r1=0.0001 x1=0 r0=0.0001 x0=0 C1=0 C0=0 Switch=y 
New "Line.Fus_2765" phases=3 bus1=2765_1_.1.2.3 bus2=2765_1.1.2.3 length=0.001 r1=0.0001 x1=0 r0=0.0001 x0=0 C1=0 C0=0 Switch=y 
New "Line.Fus_2774" phases=3 bus1=2774_1_.1.2.3 bus2=2774_1.1.2.3 length=0.001 r1=0.0001 x1=0 r0=0.0001 x0=0 C1=0 C0=0 Switch=y 
New "Line.Fus_2775" phases=3 bus1=2775_1_.1.2.3 bus2=2775_1.1.2.3 length=0.001 r1=0.0001 x1=0 r0=0.0001 x0=0 C1=0 C0=0 Switch=y 
New "Line.Fus_2776" phases=3 bus1=2776_1_.1.2.3 bus2=2776_1.1.2.3 length=0.001 r1=0.0001 x1=0 r0=0.0001 x0=0 C1=0 C0=0 Switch=y 
New "Line.Fus_2777" phases=3 bus1=2777_1_.1.2.3 bus2=2777_1.1.2.3 length=0.001 r1=0.0001 x1=0 r0=0.0001 x0=0 C1=0 C0=0 Switch=y 
New "Line.Fus_2778" phases=3 bus1=2778_1_.1.2.3 bus2=2778_1.1.2.3 length=0.001 r1=0.0001 x1=0 r0=0.0001 x0=0 C1=0 C0=0 Switch=y 
New "Line.Fus_2779" phases=3 bus1=2779_1_.1.2.3 bus2=2779_1.1.2.3 length=0.001 r1=0.0001 x1=0 r0=0.0001 x0=0 C1=0 C0=0 Switch=y 
New "Line.Fus_2780" phases=3 bus1=2780_1_.1.2.3 bus2=2780_1.1.2.3 length=0.001 r1=0.0001 x1=0 r0=0.0001 x0=0 C1=0 C0=0 Switch=y 
New "Line.Fus_2781" phases=3 bus1=2781_1_.1.2.3 bus2=2781_1.1.2.3 length=0.001 r1=0.0001 x1=0 r0=0.0001 x0=0 C1=0 C0=0 Switch=y 
New "Line.Fus_2847" phases=3 bus1=2847_1_.1.2.3 bus2=2847_1.1.2.3 length=0.001 r1=0.0001 x1=0 r0=0.0001 x0=0 C1=0 C0=0 Switch=y 
New "Line.Fus_2848" phases=3 bus1=2848_1_.1.2.3 bus2=2848_1.1.2.3 length=0.001 r1=0.0001 x1=0 r0=0.0001 x0=0 C1=0 C0=0 Switch=y 
New "Line.Fus_2849" phases=3 bus1=2849_1_.1.2.3 bus2=2849_1.1.2.3 length=0.001 r1=0.0001 x1=0 r0=0.0001 x0=0 C1=0 C0=0 Switch=y 
New "Line.Fus_2850" phases=3 bus1=2850_1_.1.2.3 bus2=2850_1.1.2.3 length=0.001 r1=0.0001 x1=0 r0=0.0001 x0=0 C1=0 C0=0 Switch=y 
New "Line.Fus_2851" phases=3 bus1=2851_1_.1.2.3 bus2=2851_1.1.2.3 length=0.001 r1=0.0001 x1=0 r0=0.0001 x0=0 C1=0 C0=0 Switch=y 
New "Line.Fus_2852" phases=3 bus1=2852_1_.1.2.3 bus2=2852_1.1.2.3 length=0.001 r1=0.0001 x1=0 r0=0.0001 x0=0 C1=0 C0=0 Switch=y 
New "Line.Fus_2853" phases=3 bus1=2853_1_.1.2.3 bus2=2853_1.1.2.3 length=0.001 r1=0.0001 x1=0 r0=0.0001 x0=0 C1=0 C0=0 Switch=y 
New "Line.Fus_2854" phases=3 bus1=2854_1_.1.2.3 bus2=2854_1.1.2.3 length=0.001 r1=0.0001 x1=0 r0=0.0001 x0=0 C1=0 C0=0 Switch=y 
New "Line.Fus_2855" phases=3 bus1=2855_1_.1.2.3 bus2=2855_1.1.2.3 length=0.001 r1=0.0001 x1=0 r0=0.0001 x0=0 C1=0 C0=0 Switch=y 
New "Line.Fus_2971" phases=3 bus1=2971_1_.1.2.3 bus2=2971_1.1.2.3 length=0.001 r1=0.0001 x1=0 r0=0.0001 x0=0 C1=0 C0=0 Switch=y 
New "Line.Fus_3086" phases=3 bus1=3086_1_.1.2.3 bus2=3086_1.1.2.3 length=0.001 r1=0.0001 x1=0 r0=0.0001 x0=0 C1=0 C0=0 Switch=y 
New "Line.Fus_3101" phases=3 bus1=3101_1_.1.2.3 bus2=3101_1.1.2.3 length=0.001 r1=0.0001 x1=0 r0=0.0001 x0=0 C1=0 C0=0 Switch=y 
New "Line.Fus_3102" phases=3 bus1=3102_1_.1.2.3 bus2=3102_1.1.2.3 length=0.001 r1=0.0001 x1=0 r0=0.0001 x0=0 C1=0 C0=0 Switch=y 
New "Line.Fus_3103" phases=3 bus1=3103_1_.1.2.3 bus2=3103_1.1.2.3 length=0.001 r1=0.0001 x1=0 r0=0.0001 x0=0 C1=0 C0=0 Switch=y 
New "Line.Fus_3154" phases=3 bus1=3154_1_.1.2.3 bus2=3154_1.1.2.3 length=0.001 r1=0.0001 x1=0 r0=0.0001 x0=0 C1=0 C0=0 Switch=y 
New "Line.Fus_3155" phases=3 bus1=3155_1_.1.2.3 bus2=3155_1.1.2.3 length=0.001 r1=0.0001 x1=0 r0=0.0001 x0=0 C1=0 C0=0 Switch=y 
New "Line.Fus_3156" phases=3 bus1=3156_1_.1.2.3 bus2=3156_1.1.2.3 length=0.001 r1=0.0001 x1=0 r0=0.0001 x0=0 C1=0 C0=0 Switch=y 
New "Line.Fus_3170" phases=3 bus1=3170_1_.1.2.3 bus2=3170_1.1.2.3 length=0.001 r1=0.0001 x1=0 r0=0.0001 x0=0 C1=0 C0=0 Switch=y 
New "Line.Fus_3384" phases=3 bus1=3384_1_.1.2.3 bus2=3384_1.1.2.3 length=0.001 r1=0.0001 x1=0 r0=0.0001 x0=0 C1=0 C0=0 Switch=y 
New "Line.Fus_3401" phases=3 bus1=3401_1_.1.2.3 bus2=3401_1.1.2.3 length=0.001 r1=0.0001 x1=0 r0=0.0001 x0=0 C1=0 C0=0 Switch=y 
New "Line.Fus_3402" phases=3 bus1=3402_1_.1.2.3 bus2=3402_1.1.2.3 length=0.001 r1=0.0001 x1=0 r0=0.0001 x0=0 C1=0 C0=0 Switch=y 
New "Line.Fus_3407" phases=3 bus1=3407_1_.1.2.3 bus2=3407_1.1.2.3 length=0.001 r1=0.0001 x1=0 r0=0.0001 x0=0 C1=0 C0=0 Switch=y 
New "Line.Fus_3408" phases=3 bus1=3408_1_.1.2.3 bus2=3408_1.1.2.3 length=0.001 r1=0.0001 x1=0 r0=0.0001 x0=0 C1=0 C0=0 Switch=y 
New "Line.Fus_3409" phases=3 bus1=3409_1_.1.2.3 bus2=3409_1.1.2.3 length=0.001 r1=0.0001 x1=0 r0=0.0001 x0=0 C1=0 C0=0 Switch=y 
New "Line.Fus_3410" phases=3 bus1=3410_1_.1.2.3 bus2=3410_1.1.2.3 length=0.001 r1=0.0001 x1=0 r0=0.0001 x0=0 C1=0 C0=0 Switch=y 
New "Line.Fus_3411" phases=3 bus1=3411_1_.1.2.3 bus2=3411_1.1.2.3 length=0.001 r1=0.0001 x1=0 r0=0.0001 x0=0 C1=0 C0=0 Switch=y 
New "Line.Fus_3412" phases=3 bus1=3412_1_.1.2.3 bus2=3412_1.1.2.3 length=0.001 r1=0.0001 x1=0 r0=0.0001 x0=0 C1=0 C0=0 Switch=y 
New "Line.Fus_3413" phases=3 bus1=3413_1_.1.2.3 bus2=3413_1.1.2.3 length=0.001 r1=0.0001 x1=0 r0=0.0001 x0=0 C1=0 C0=0 Switch=y 
New "Line.Fus_3414" phases=3 bus1=3414_1_.1.2.3 bus2=3414_1.1.2.3 length=0.001 r1=0.0001 x1=0 r0=0.0001 x0=0 C1=0 C0=0 Switch=y 
New "Line.Fus_3415" phases=3 bus1=3415_1_.1.2.3 bus2=3415_1.1.2.3 length=0.001 r1=0.0001 x1=0 r0=0.0001 x0=0 C1=0 C0=0 Switch=y 
New "Line.Fus_3426" phases=3 bus1=3426_1_.1.2.3 bus2=3426_1.1.2.3 length=0.001 r1=0.0001 x1=0 r0=0.0001 x0=0 C1=0 C0=0 Switch=y 
New "Line.Fus_3469" phases=3 bus1=3469_1_.1.2.3 bus2=3469_1.1.2.3 length=0.001 r1=0.0001 x1=0 r0=0.0001 x0=0 C1=0 C0=0 Switch=y 
New "Line.Fus_3470" phases=3 bus1=3470_1_.1.2.3 bus2=3470_1.1.2.3 length=0.001 r1=0.0001 x1=0 r0=0.0001 x0=0 C1=0 C0=0 Switch=y 
New "Line.Fus_3496" phases=3 bus1=3496_1_.1.2.3 bus2=3496_1.1.2.3 length=0.001 r1=0.0001 x1=0 r0=0.0001 x0=0 C1=0 C0=0 Switch=y 
New "Line.Fus_3508" phases=3 bus1=3508_1_.1.2.3 bus2=3508_1.1.2.3 length=0.001 r1=0.0001 x1=0 r0=0.0001 x0=0 C1=0 C0=0 Switch=y 
New "Line.Fus_3533" phases=3 bus1=3533_1_.1.2.3 bus2=3533_1.1.2.3 length=0.001 r1=0.0001 x1=0 r0=0.0001 x0=0 C1=0 C0=0 Switch=y 
New "Line.Fus_3534" phases=3 bus1=3534_1_.1.2.3 bus2=3534_1.1.2.3 length=0.001 r1=0.0001 x1=0 r0=0.0001 x0=0 C1=0 C0=0 Switch=y 
New "Line.Fus_3535" phases=3 bus1=3535_1_.1.2.3 bus2=3535_1.1.2.3 length=0.001 r1=0.0001 x1=0 r0=0.0001 x0=0 C1=0 C0=0 Switch=y 
New "Line.Fus_3536" phases=3 bus1=3536_1_.1.2.3 bus2=3536_1.1.2.3 length=0.001 r1=0.0001 x1=0 r0=0.0001 x0=0 C1=0 C0=0 Switch=y 
New "Line.Fus_3587" phases=3 bus1=3587_1_.1.2.3 bus2=3587_1.1.2.3 length=0.001 r1=0.0001 x1=0 r0=0.0001 x0=0 C1=0 C0=0 Switch=y 
New "Line.Fus_3588" phases=3 bus1=3588_1_.1.2.3 bus2=3588_1.1.2.3 length=0.001 r1=0.0001 x1=0 r0=0.0001 x0=0 C1=0 C0=0 Switch=y 
New "Line.Fus_3593" phases=3 bus1=3593_1_.1.2.3 bus2=3593_1.1.2.3 length=0.001 r1=0.0001 x1=0 r0=0.0001 x0=0 C1=0 C0=0 Switch=y 
New "Line.Fus_3594" phases=3 bus1=3594_1_.1.2.3 bus2=3594_1.1.2.3 length=0.001 r1=0.0001 x1=0 r0=0.0001 x0=0 C1=0 C0=0 Switch=y 
New "Line.Fus_3598" phases=3 bus1=3598_1_.1.2.3 bus2=3598_1.1.2.3 length=0.001 r1=0.0001 x1=0 r0=0.0001 x0=0 C1=0 C0=0 Switch=y 
New "Line.Fus_3602" phases=3 bus1=3602_1_.1.2.3 bus2=3602_1.1.2.3 length=0.001 r1=0.0001 x1=0 r0=0.0001 x0=0 C1=0 C0=0 Switch=y 
New "Line.Fus_3604" phases=3 bus1=3604_1_.1.2.3 bus2=3604_1.1.2.3 length=0.001 r1=0.0001 x1=0 r0=0.0001 x0=0 C1=0 C0=0 Switch=y 
New "Line.Fus_3605" phases=3 bus1=3605_1_.1.2.3 bus2=3605_1.1.2.3 length=0.001 r1=0.0001 x1=0 r0=0.0001 x0=0 C1=0 C0=0 Switch=y 
New "Line.Fus_3624" phases=3 bus1=3624_1_.1.2.3 bus2=3624_1.1.2.3 length=0.001 r1=0.0001 x1=0 r0=0.0001 x0=0 C1=0 C0=0 Switch=y 
New "Line.Fus_3656" phases=3 bus1=3656_1_.1.2.3 bus2=3656_1.1.2.3 length=0.001 r1=0.0001 x1=0 r0=0.0001 x0=0 C1=0 C0=0 Switch=y 
New "Line.Fus_3657" phases=3 bus1=3657_1_.1.2.3 bus2=3657_1.1.2.3 length=0.001 r1=0.0001 x1=0 r0=0.0001 x0=0 C1=0 C0=0 Switch=y 
New "Line.Fus_3658" phases=3 bus1=3658_1_.1.2.3 bus2=3658_1.1.2.3 length=0.001 r1=0.0001 x1=0 r0=0.0001 x0=0 C1=0 C0=0 Switch=y 
New "Line.Fus_3662" phases=3 bus1=3662_1_.1.2.3 bus2=3662_1.1.2.3 length=0.001 r1=0.0001 x1=0 r0=0.0001 x0=0 C1=0 C0=0 Switch=y 
New "Line.Fus_3683" phases=3 bus1=3683_1_.1.2.3 bus2=3683_1.1.2.3 length=0.001 r1=0.0001 x1=0 r0=0.0001 x0=0 C1=0 C0=0 Switch=y 
New "Line.Fus_3687" phases=3 bus1=3687_1_.1.2.3 bus2=3687_1.1.2.3 length=0.001 r1=0.0001 x1=0 r0=0.0001 x0=0 C1=0 C0=0 Switch=y 
New "Line.Fus_3693" phases=3 bus1=3693_1_.1.2.3 bus2=3693_1.1.2.3 length=0.001 r1=0.0001 x1=0 r0=0.0001 x0=0 C1=0 C0=0 Switch=y 
New "Line.Fus_3700" phases=3 bus1=3700_1_.1.2.3 bus2=3700_1.1.2.3 length=0.001 r1=0.0001 x1=0 r0=0.0001 x0=0 C1=0 C0=0 Switch=y 
New "Line.Fus_3731" phases=3 bus1=3731_1_.1.2.3 bus2=3731_1.1.2.3 length=0.001 r1=0.0001 x1=0 r0=0.0001 x0=0 C1=0 C0=0 Switch=y 
New "Line.Fus_3757" phases=3 bus1=3757_1_.1.2.3 bus2=3757_1.1.2.3 length=0.001 r1=0.0001 x1=0 r0=0.0001 x0=0 C1=0 C0=0 Switch=y 
New "Line.Fus_3759" phases=3 bus1=3759_1_.1.2.3 bus2=3759_1.1.2.3 length=0.001 r1=0.0001 x1=0 r0=0.0001 x0=0 C1=0 C0=0 Switch=y 
New "Line.Fus_3770" phases=3 bus1=3770_1_.1.2.3 bus2=3770_1.1.2.3 length=0.001 r1=0.0001 x1=0 r0=0.0001 x0=0 C1=0 C0=0 Switch=y 
New "Line.Fus_3771" phases=3 bus1=3771_1_.1.2.3 bus2=3771_1.1.2.3 length=0.001 r1=0.0001 x1=0 r0=0.0001 x0=0 C1=0 C0=0 Switch=y 
New "Line.Fus_3788" phases=3 bus1=3788_1_.1.2.3 bus2=3788_1.1.2.3 length=0.001 r1=0.0001 x1=0 r0=0.0001 x0=0 C1=0 C0=0 Switch=y 
New "Line.Fus_3794" phases=3 bus1=3794_1_.1.2.3 bus2=3794_1.1.2.3 length=0.001 r1=0.0001 x1=0 r0=0.0001 x0=0 C1=0 C0=0 Switch=y 
New "Line.Fus_3826" phases=3 bus1=3826_1_.1.2.3 bus2=3826_1.1.2.3 length=0.001 r1=0.0001 x1=0 r0=0.0001 x0=0 C1=0 C0=0 Switch=y 
New "Line.Fus_3840" phases=3 bus1=3840_1_.1.2.3 bus2=3840_1.1.2.3 length=0.001 r1=0.0001 x1=0 r0=0.0001 x0=0 C1=0 C0=0 Switch=y 
New "Line.Fus_3850" phases=3 bus1=3850_1_.1.2.3 bus2=3850_1.1.2.3 length=0.001 r1=0.0001 x1=0 r0=0.0001 x0=0 C1=0 C0=0 Switch=y 
New "Line.Fus_3932" phases=3 bus1=3932_1_.1.2.3 bus2=3932_1.1.2.3 length=0.001 r1=0.0001 x1=0 r0=0.0001 x0=0 C1=0 C0=0 Switch=y 
New "Line.Fus_3978" phases=3 bus1=3978_1_.1.2.3 bus2=3978_1.1.2.3 length=0.001 r1=0.0001 x1=0 r0=0.0001 x0=0 C1=0 C0=0 Switch=y 
New "Line.Fus_3979" phases=3 bus1=3979_1_.1.2.3 bus2=3979_1.1.2.3 length=0.001 r1=0.0001 x1=0 r0=0.0001 x0=0 C1=0 C0=0 Switch=y 
New "Line.Fus_3980" phases=3 bus1=3980_1_.1.2.3 bus2=3980_1.1.2.3 length=0.001 r1=0.0001 x1=0 r0=0.0001 x0=0 C1=0 C0=0 Switch=y 
New "Line.Fus_3981" phases=3 bus1=3981_1_.1.2.3 bus2=3981_1.1.2.3 length=0.001 r1=0.0001 x1=0 r0=0.0001 x0=0 C1=0 C0=0 Switch=y 
New "Line.Fus_4014" phases=3 bus1=4014_1_.1.2.3 bus2=4014_1.1.2.3 length=0.001 r1=0.0001 x1=0 r0=0.0001 x0=0 C1=0 C0=0 Switch=y 
New "Line.Fus_4015" phases=3 bus1=4015_1_.1.2.3 bus2=4015_1.1.2.3 length=0.001 r1=0.0001 x1=0 r0=0.0001 x0=0 C1=0 C0=0 Switch=y 
New "Line.Fus_4051" phases=3 bus1=4051_1_.1.2.3 bus2=4051_1.1.2.3 length=0.001 r1=0.0001 x1=0 r0=0.0001 x0=0 C1=0 C0=0 Switch=y 
New "Line.Fus_4055" phases=3 bus1=4055_1_.1.2.3 bus2=4055_1.1.2.3 length=0.001 r1=0.0001 x1=0 r0=0.0001 x0=0 C1=0 C0=0 Switch=y 
New "Line.Fus_4091" phases=3 bus1=4091_1_.1.2.3 bus2=4091_1.1.2.3 length=0.001 r1=0.0001 x1=0 r0=0.0001 x0=0 C1=0 C0=0 Switch=y 
New "Line.Fus_4127" phases=3 bus1=4127_1_.1.2.3 bus2=4127_1.1.2.3 length=0.001 r1=0.0001 x1=0 r0=0.0001 x0=0 C1=0 C0=0 Switch=y 
New "Line.Fus_4130" phases=3 bus1=4130_1_.1.2.3 bus2=4130_1.1.2.3 length=0.001 r1=0.0001 x1=0 r0=0.0001 x0=0 C1=0 C0=0 Switch=y 
New "Line.Fus_4131" phases=3 bus1=4131_1_.1.2.3 bus2=4131_1.1.2.3 length=0.001 r1=0.0001 x1=0 r0=0.0001 x0=0 C1=0 C0=0 Switch=y 
New "Line.Fus_4132" phases=3 bus1=4132_1_.1.2.3 bus2=4132_1.1.2.3 length=0.001 r1=0.0001 x1=0 r0=0.0001 x0=0 C1=0 C0=0 Switch=y 
New "Line.Fus_4133" phases=3 bus1=4133_1_.1.2.3 bus2=4133_1.1.2.3 length=0.001 r1=0.0001 x1=0 r0=0.0001 x0=0 C1=0 C0=0 Switch=y 
New "Line.Fus_4147" phases=3 bus1=4147_1_.1.2.3 bus2=4147_1.1.2.3 length=0.001 r1=0.0001 x1=0 r0=0.0001 x0=0 C1=0 C0=0 Switch=y 
New "Line.Fus_4148" phases=3 bus1=4148_1_.1.2.3 bus2=4148_1.1.2.3 length=0.001 r1=0.0001 x1=0 r0=0.0001 x0=0 C1=0 C0=0 Switch=y 
New "Line.Fus_4177" phases=3 bus1=4177_1_.1.2.3 bus2=4177_1.1.2.3 length=0.001 r1=0.0001 x1=0 r0=0.0001 x0=0 C1=0 C0=0 Switch=y 
New "Line.Fus_4241" phases=3 bus1=4241_1_.1.2.3 bus2=4241_1.1.2.3 length=0.001 r1=0.0001 x1=0 r0=0.0001 x0=0 C1=0 C0=0 Switch=y 
New "Line.Fus_4287" phases=3 bus1=4287_1_.1.2.3 bus2=4287_1.1.2.3 length=0.001 r1=0.0001 x1=0 r0=0.0001 x0=0 C1=0 C0=0 Switch=y 
New "Line.Fus_4302" phases=3 bus1=4302_1_.1.2.3 bus2=4302_1.1.2.3 length=0.001 r1=0.0001 x1=0 r0=0.0001 x0=0 C1=0 C0=0 Switch=y 
New "Line.Fus_4311" phases=3 bus1=4311_1_.1.2.3 bus2=4311_1.1.2.3 length=0.001 r1=0.0001 x1=0 r0=0.0001 x0=0 C1=0 C0=0 Switch=y 
New "Line.Fus_4339_1_" phases=3 bus1=4339_1_.1.2.3 bus2=1_2461.1.2.3 length=0.001 r1=0.0001 x1=0 r0=0.0001 x0=0 C1=0 C0=0 Switch=y 
New "Line.Fus_4339" phases=3 bus1=4339_1_.1.2.3 bus2=4339_1.1.2.3 length=0.001 r1=0.0001 x1=0 r0=0.0001 x0=0 C1=0 C0=0 Switch=y 
New "Line.Fus_4418" phases=3 bus1=4418_1_.1.2.3 bus2=4418_1.1.2.3 length=0.001 r1=0.0001 x1=0 r0=0.0001 x0=0 C1=0 C0=0 Switch=y 
New "Line.Fus_4419" phases=3 bus1=4419_1_.1.2.3 bus2=4419_1.1.2.3 length=0.001 r1=0.0001 x1=0 r0=0.0001 x0=0 C1=0 C0=0 Switch=y 
New "Line.Fus_4420" phases=3 bus1=4420_1_.1.2.3 bus2=4420_1.1.2.3 length=0.001 r1=0.0001 x1=0 r0=0.0001 x0=0 C1=0 C0=0 Switch=y 
New "Line.Fus_4421" phases=3 bus1=4421_1_.1.2.3 bus2=4421_1.1.2.3 length=0.001 r1=0.0001 x1=0 r0=0.0001 x0=0 C1=0 C0=0 Switch=y 
New "Line.Fus_4422" phases=3 bus1=4422_1_.1.2.3 bus2=4422_1.1.2.3 length=0.001 r1=0.0001 x1=0 r0=0.0001 x0=0 C1=0 C0=0 Switch=y 
New "Line.Fus_4432" phases=3 bus1=4432_1_.1.2.3 bus2=4432_1.1.2.3 length=0.001 r1=0.0001 x1=0 r0=0.0001 x0=0 C1=0 C0=0 Switch=y 
New "Line.Fus_4433" phases=3 bus1=4433_1_.1.2.3 bus2=4433_1.1.2.3 length=0.001 r1=0.0001 x1=0 r0=0.0001 x0=0 C1=0 C0=0 Switch=y 
New "Line.Fus_4438" phases=3 bus1=4438_1_.1.2.3 bus2=4438_1.1.2.3 length=0.001 r1=0.0001 x1=0 r0=0.0001 x0=0 C1=0 C0=0 Switch=y 
New "Line.Fus_4452" phases=3 bus1=4452_1_.1.2.3 bus2=4452_1.1.2.3 length=0.001 r1=0.0001 x1=0 r0=0.0001 x0=0 C1=0 C0=0 Switch=y 
New "Line.Fus_4453" phases=3 bus1=4453_1_.1.2.3 bus2=4453_1.1.2.3 length=0.001 r1=0.0001 x1=0 r0=0.0001 x0=0 C1=0 C0=0 Switch=y 
New "Line.Fus_4470" phases=3 bus1=4470_1_.1.2.3 bus2=4470_1.1.2.3 length=0.001 r1=0.0001 x1=0 r0=0.0001 x0=0 C1=0 C0=0 Switch=y 
New "Line.Fus_4472_1_" phases=3 bus1=4472_1_.1.2.3 bus2=1_2477.1.2.3 length=0.001 r1=0.0001 x1=0 r0=0.0001 x0=0 C1=0 C0=0 Switch=y 
New "Line.Fus_4472" phases=3 bus1=4472_1_.1.2.3 bus2=4472_1.1.2.3 length=0.001 r1=0.0001 x1=0 r0=0.0001 x0=0 C1=0 C0=0 Switch=y 
New "Line.Fus_4473" phases=3 bus1=4473_1_.1.2.3 bus2=4473_1.1.2.3 length=0.001 r1=0.0001 x1=0 r0=0.0001 x0=0 C1=0 C0=0 Switch=y 
New "Line.Fus_4474" phases=3 bus1=4474_1_.1.2.3 bus2=4474_1.1.2.3 length=0.001 r1=0.0001 x1=0 r0=0.0001 x0=0 C1=0 C0=0 Switch=y 
New "Line.Fus_4475" phases=3 bus1=4475_1_.1.2.3 bus2=4475_1.1.2.3 length=0.001 r1=0.0001 x1=0 r0=0.0001 x0=0 C1=0 C0=0 Switch=y 
New "Line.Fus_4478" phases=3 bus1=4478_1_.1.2.3 bus2=4478_1.1.2.3 length=0.001 r1=0.0001 x1=0 r0=0.0001 x0=0 C1=0 C0=0 Switch=y 
New "Line.Fus_4540" phases=3 bus1=4540_1_.1.2.3 bus2=4540_1.1.2.3 length=0.001 r1=0.0001 x1=0 r0=0.0001 x0=0 C1=0 C0=0 Switch=y 
New "Line.Fus_4551" phases=3 bus1=4551_1_.1.2.3 bus2=4551_1.1.2.3 length=0.001 r1=0.0001 x1=0 r0=0.0001 x0=0 C1=0 C0=0 Switch=y 
New "Line.Fus_4561" phases=3 bus1=4561_1_.1.2.3 bus2=4561_1.1.2.3 length=0.001 r1=0.0001 x1=0 r0=0.0001 x0=0 C1=0 C0=0 Switch=y 
New "Line.Fus_4567" phases=3 bus1=4567_1_.1.2.3 bus2=4567_1.1.2.3 length=0.001 r1=0.0001 x1=0 r0=0.0001 x0=0 C1=0 C0=0 Switch=y 
New "Line.Fus_4608" phases=3 bus1=4608_1_.1.2.3 bus2=4608_1.1.2.3 length=0.001 r1=0.0001 x1=0 r0=0.0001 x0=0 C1=0 C0=0 Switch=y 
New "Line.Fus_4609" phases=3 bus1=4609_1_.1.2.3 bus2=4609_1.1.2.3 length=0.001 r1=0.0001 x1=0 r0=0.0001 x0=0 C1=0 C0=0 Switch=y 
New "Line.Fus_4621" phases=3 bus1=4621_1_.1.2.3 bus2=4621_1.1.2.3 length=0.001 r1=0.0001 x1=0 r0=0.0001 x0=0 C1=0 C0=0 Switch=y 
New "Line.Fus_4670" phases=3 bus1=4670_1_.1.2.3 bus2=4670_1.1.2.3 length=0.001 r1=0.0001 x1=0 r0=0.0001 x0=0 C1=0 C0=0 Switch=y 
New "Line.Fus_4671" phases=3 bus1=4671_1_.1.2.3 bus2=4671_1.1.2.3 length=0.001 r1=0.0001 x1=0 r0=0.0001 x0=0 C1=0 C0=0 Switch=y 
New "Line.Fus_4684" phases=3 bus1=4684_1_.1.2.3 bus2=4684_1.1.2.3 length=0.001 r1=0.0001 x1=0 r0=0.0001 x0=0 C1=0 C0=0 Switch=y 
New "Line.Fus_4718" phases=3 bus1=4718_1_.1.2.3 bus2=4718_1.1.2.3 length=0.001 r1=0.0001 x1=0 r0=0.0001 x0=0 C1=0 C0=0 Switch=y 
New "Line.Fus_4719" phases=3 bus1=4719_1_.1.2.3 bus2=4719_1.1.2.3 length=0.001 r1=0.0001 x1=0 r0=0.0001 x0=0 C1=0 C0=0 Switch=y 
New "Line.Fus_4744" phases=3 bus1=4744_1_.1.2.3 bus2=4744_1.1.2.3 length=0.001 r1=0.0001 x1=0 r0=0.0001 x0=0 C1=0 C0=0 Switch=y 
New "Line.Fus_4766" phases=3 bus1=4766_1_.1.2.3 bus2=4766_1.1.2.3 length=0.001 r1=0.0001 x1=0 r0=0.0001 x0=0 C1=0 C0=0 Switch=y 
New "Line.Fus_4777" phases=3 bus1=4777_1_.1.2.3 bus2=4777_1.1.2.3 length=0.001 r1=0.0001 x1=0 r0=0.0001 x0=0 C1=0 C0=0 Switch=y 
New "Line.Fus_4778" phases=3 bus1=4778_1_.1.2.3 bus2=4778_1.1.2.3 length=0.001 r1=0.0001 x1=0 r0=0.0001 x0=0 C1=0 C0=0 Switch=y 
New "Line.Fus_4779" phases=3 bus1=4779_1_.1.2.3 bus2=4779_1.1.2.3 length=0.001 r1=0.0001 x1=0 r0=0.0001 x0=0 C1=0 C0=0 Switch=y 
New "Line.Fus_4811" phases=3 bus1=4811_1_.1.2.3 bus2=4811_1.1.2.3 length=0.001 r1=0.0001 x1=0 r0=0.0001 x0=0 C1=0 C0=0 Switch=y 
New "Line.Fus_4816" phases=3 bus1=4816_1_.1.2.3 bus2=4816_1.1.2.3 length=0.001 r1=0.0001 x1=0 r0=0.0001 x0=0 C1=0 C0=0 Switch=y 
New "Line.Fus_4829" phases=3 bus1=4829_1_.1.2.3 bus2=4829_1.1.2.3 length=0.001 r1=0.0001 x1=0 r0=0.0001 x0=0 C1=0 C0=0 Switch=y 
New "Line.Fus_4845" phases=3 bus1=4845_1_.1.2.3 bus2=4845_1.1.2.3 length=0.001 r1=0.0001 x1=0 r0=0.0001 x0=0 C1=0 C0=0 Switch=y 
New "Line.Fus_4846" phases=3 bus1=4846_1_.1.2.3 bus2=4846_1.1.2.3 length=0.001 r1=0.0001 x1=0 r0=0.0001 x0=0 C1=0 C0=0 Switch=y 
New "Line.Fus_4847_1_" phases=3 bus1=4847_1_.1.2.3 bus2=1_2540.1.2.3 length=0.001 r1=0.0001 x1=0 r0=0.0001 x0=0 C1=0 C0=0 Switch=y 
New "Line.Fus_4847" phases=3 bus1=4847_1_.1.2.3 bus2=4847_1.1.2.3 length=0.001 r1=0.0001 x1=0 r0=0.0001 x0=0 C1=0 C0=0 Switch=y 
New "Line.Fus_5055_1_" phases=3 bus1=5055_1_.1.2.3 bus2=1_2548.1.2.3 length=0.001 r1=0.0001 x1=0 r0=0.0001 x0=0 C1=0 C0=0 Switch=y 
New "Line.Fus_5055_2_" phases=3 bus1=5055_1_.1.2.3 bus2=2_2548.1.2.3 length=0.001 r1=0.0001 x1=0 r0=0.0001 x0=0 C1=0 C0=0 Switch=y 
New "Line.Fus_5055" phases=3 bus1=5055_1_.1.2.3 bus2=5055_1.1.2.3 length=0.001 r1=0.0001 x1=0 r0=0.0001 x0=0 C1=0 C0=0 Switch=y 
New "Line.Fus_5063_1_" phases=3 bus1=5063_1_.1.2.3 bus2=1_2549.1.2.3 length=0.001 r1=0.0001 x1=0 r0=0.0001 x0=0 C1=0 C0=0 Switch=y 
New "Line.Fus_5063" phases=3 bus1=5063_1_.1.2.3 bus2=5063_1.1.2.3 length=0.001 r1=0.0001 x1=0 r0=0.0001 x0=0 C1=0 C0=0 Switch=y 
New "Line.Fus_5087_1_" phases=3 bus1=5087_1_.1.2.3 bus2=1_2553.1.2.3 length=0.001 r1=0.0001 x1=0 r0=0.0001 x0=0 C1=0 C0=0 Switch=y 
...