dss/import/seal/Load_Caso_Base.dss
New "Load.1396" bus1=1396_2.1.2.3 phases=3 conn=LL model=1 kV=0.4 Kw=7.335 kvar=1.298 Vminpu=0.9 Vmaxpu=1.1 
New "Load.1697" bus1=1697_2.1.2.3 phases=3 conn=LL model=1 kV=0.4 Kw=46.286 kvar=8.193 Vminpu=0.9 Vmaxpu=1.1 
New "Load.1698" bus1=1698_2.1.2.3 phases=3 conn=LL model=1 kV=0.4 Kw=10.876 kvar=1.925 Vminpu=0.9 Vmaxpu=1.1 
New "Load.1744" bus1=1744_2.1.2.3 phases=3 conn=LL model=1 kV=0.4 Kw=66.521 kvar=11.775 Vminpu=0.9 Vmaxpu=1.1 
New "Load.1745" bus1=1745_2.1.2.3 phases=3 conn=LL model=1 kV=0.4 Kw=101.932 kvar=18.044 Vminpu=0.9 Vmaxpu=1.1 
New "Load.1746" bus1=1746_2.1.2.3 phases=3 conn=LL model=1 kV=0.4 Kw=59.186 kvar=10.477 Vminpu=0.9 Vmaxpu=1.1 
New "Load.1778" bus1=1778_2.1.2.3 phases=3 conn=LL model=1 kV=0.4 Kw=45.78 kvar=8.104 Vminpu=0.9 Vmaxpu=1.1 
New "Load.1812" bus1=1812_2.1.2.3 phases=3 conn=LL model=1 kV=0.4 Kw=69.05 kvar=12.223 Vminpu=0.9 Vmaxpu=1.1 
New "Load.1813" bus1=1813_2.1.2.3 phases=3 conn=LL model=1 kV=0.4 Kw=93.332 kvar=16.522 Vminpu=0.9 Vmaxpu=1.1 
New "Load.1855" bus1=1855_2.1.2.3 phases=3 conn=LL model=1 kV=0.4 Kw=10.623 kvar=1.88 Vminpu=0.9 Vmaxpu=1.1 
New "Load.1876" bus1=1876_2.1.2.3 phases=3 conn=LL model=1 kV=0.4 Kw=52.357 kvar=9.268 Vminpu=0.9 Vmaxpu=1.1 
New "Load.1877" bus1=1877_2.1.2.3 phases=3 conn=LL model=1 kV=0.4 Kw=59.186 kvar=10.477 Vminpu=0.9 Vmaxpu=1.1 
New "Load.1878" bus1=1878_2.1.2.3 phases=3 conn=LL model=1 kV=0.4 Kw=94.597 kvar=16.746 Vminpu=0.9 Vmaxpu=1.1 
New "Load.1879" bus1=1879_2.1.2.3 phases=3 conn=LL model=1 kV=0.4 Kw=62.98 kvar=11.149 Vminpu=0.9 Vmaxpu=1.1 
New "Load.1893" bus1=1893_2.1.2.3 phases=3 conn=LL model=1 kV=0.4 Kw=70.821 kvar=12.537 Vminpu=0.9 Vmaxpu=1.1 
New "Load.1930" bus1=1930_2.1.2.3 phases=3 conn=LL model=1 kV=0.4 Kw=37.434 kvar=6.626 Vminpu=0.9 Vmaxpu=1.1 
New "Load.1982" bus1=1982_2.1.2.3 phases=3 conn=LL model=1 kV=0.4 Kw=14.592 kvar=2.583 Vminpu=0.9 Vmaxpu=1.1 
New "Load.1987" bus1=1987_2.1.2.3 phases=3 conn=LL model=1 kV=0.4 Kw=67.533 kvar=11.955 Vminpu=0.9 Vmaxpu=1.1 
New "Load.2086" bus1=2086_2.1.2.3 phases=3 conn=LL model=1 kV=0.4 Kw=69.809 kvar=12.358 Vminpu=0.9 Vmaxpu=1.1 
New "Load.2087" bus1=2087_2.1.2.3 phases=3 conn=LL model=1 kV=0.4 Kw=75.121 kvar=13.298 Vminpu=0.9 Vmaxpu=1.1 
New "Load.2088" bus1=2088_2.1.2.3 phases=3 conn=LL model=1 kV=0.4 Kw=31.363 kvar=5.552 Vminpu=0.9 Vmaxpu=1.1 
New "Load.2089" bus1=2089_2.1.2.3 phases=3 conn=LL model=1 kV=0.4 Kw=22.258 kvar=3.94 Vminpu=0.9 Vmaxpu=1.1 
New "Load.2090" bus1=2090_2.1.2.3 phases=3 conn=LL model=1 kV=0.4 Kw=16.946 kvar=2.999 Vminpu=0.9 Vmaxpu=1.1 
New "Load.2091" bus1=2091_2.1.2.3 phases=3 conn=LL model=1 kV=0.4 Kw=22.258 kvar=3.94 Vminpu=0.9 Vmaxpu=1.1 
New "Load.2092" bus1=2092_2.1.2.3 phases=3 conn=LL model=1 kV=0.4 Kw=23.775 kvar=4.208 Vminpu=0.9 Vmaxpu=1.1 
New "Load.2095" bus1=2095_2.1.2.3 phases=3 conn=LL model=1 kV=0.4 Kw=40.722 kvar=7.208 Vminpu=0.9 Vmaxpu=1.1 
New "Load.2096" bus1=2096_2.1.2.3 phases=3 conn=LL model=1 kV=0.4 Kw=28.834 kvar=5.104 Vminpu=0.9 Vmaxpu=1.1 
New "Load.2097" bus1=2097_2.1.2.3 phases=3 conn=LL model=1 kV=0.4 Kw=23.522 kvar=4.164 Vminpu=0.9 Vmaxpu=1.1 
New "Load.2126" bus1=2126_2.1.2.3 phases=3 conn=LL model=1 kV=0.4 Kw=43.251 kvar=7.656 Vminpu=0.9 Vmaxpu=1.1 
New "Load.2174" bus1=2174_2.1.2.3 phases=3 conn=LL model=1 kV=0.4 Kw=136.195 kvar=24.109 Vminpu=0.9 Vmaxpu=1.1 
New "Load.2222" bus1=2222_2.1.2.3 phases=3 conn=LL model=1 kV=0.4 Kw=18.464 kvar=3.268 Vminpu=0.9 Vmaxpu=1.1 
New "Load.2279" bus1=2279_2.1.2.3 phases=3 conn=LL model=1 kV=0.4 Kw=23.016 kvar=4.074 Vminpu=0.9 Vmaxpu=1.1 
New "Load.2423" bus1=2423_2.1.2.3 phases=3 conn=LL model=1 kV=0.4 Kw=58.369 kvar=10.332 Vminpu=0.9 Vmaxpu=1.1 
New "Load.2605" bus1=2605_2.1.2.3 phases=3 conn=LL model=1 kV=0.4 Kw=38.698 kvar=6.85 Vminpu=0.9 Vmaxpu=1.1 
New "Load.2606" bus1=2606_2.1.2.3 phases=3 conn=LL model=1 kV=0.4 Kw=35.157 kvar=6.223 Vminpu=0.9 Vmaxpu=1.1 
New "Load.2607" bus1=2607_2.1.2.3 phases=3 conn=LL model=1 kV=0.4 Kw=31.869 kvar=5.641 Vminpu=0.9 Vmaxpu=1.1 
New "Load.2628" bus1=2628_2.1.2.3 phases=3 conn=LL model=1 kV=0.4 Kw=26.558 kvar=4.701 Vminpu=0.9 Vmaxpu=1.1 
New "Load.2764" bus1=2764_2.1.2.3 phases=3 conn=LL model=1 kV=0.4 Kw=8.346 kvar=1.477 Vminpu=0.9 Vmaxpu=1.1 
New "Load.2765" bus1=2765_2.1.2.3 phases=3 conn=LL model=1 kV=0.4 Kw=34.398 kvar=6.089 Vminpu=0.9 Vmaxpu=1.1 
New "Load.2774" bus1=2774_2.1.2.3 phases=3 conn=LL model=1 kV=0.4 Kw=18.211 kvar=3.223 Vminpu=0.9 Vmaxpu=1.1 
New "Load.2775" bus1=2775_2.1.2.3 phases=3 conn=LL model=1 kV=0.4 Kw=3.288 kvar=0.582 Vminpu=0.9 Vmaxpu=1.1 
New "Load.2776" bus1=2776_2.1.2.3 phases=3 conn=LL model=1 kV=0.4 Kw=3.288 kvar=0.582 Vminpu=0.9 Vmaxpu=1.1 
New "Load.2777" bus1=2777_2.1.2.3 phases=3 conn=LL model=1 kV=0.4 Kw=5.311 kvar=0.94 Vminpu=0.9 Vmaxpu=1.1 
New "Load.2778" bus1=2778_2.1.2.3 phases=3 conn=LL model=1 kV=0.4 Kw=4.046 kvar=0.716 Vminpu=0.9 Vmaxpu=1.1 
New "Load.2779" bus1=2779_2.1.2.3 phases=3 conn=LL model=1 kV=0.4 Kw=4.046 kvar=0.716 Vminpu=0.9 Vmaxpu=1.1 
...